<?xml version="1.0" encoding="UTF-8"?>

<!-- generated on 2024-12-02 00:14:29 by Eclipse SUMO netedit Version 1.21.0
-->

<additional xmlns:xsi="http://www.w3.org/2001/XMLSchema-instance" xsi:noNamespaceSchemaLocation="http://sumo.dlr.de/xsd/additional_file.xsd">
    <!-- Detectors -->
    <entryExitDetector id="e3_0" pos="1118.48,936.37" period="100.00" file="Torres.xml">
        <detEntry lane="156268175#7_1" pos="48.50"/>
        <detEntry lane="156268175#7_2" pos="48.50"/>
        <detEntry lane="156268175#7_0" pos="48.50"/>
        <detEntry lane="507132798#1_0" pos="48.00"/>
        <detEntry lane="507132798#1_1" pos="48.00"/>
        <detEntry lane="507132798#1_2" pos="48.00"/>
        <detExit lane="156268175#8_2" pos="1.00"/>
        <detExit lane="156268175#8_1" pos="1.00"/>
        <detExit lane="156268175#8_0" pos="1.00"/>
        <detExit lane="507132798#2_0" pos="1.00"/>
        <detExit lane="507132798#2_1" pos="1.00"/>
        <detExit lane="507132798#2_2" pos="1.00"/>
    </entryExitDetector>
    <entryExitDetector id="e3_1" pos="1116.91,955.28" period="100.00" file="Belizario.xml">
        <detEntry lane="-700335842#1_0" pos="78.00"/>
        <detEntry lane="477694276#2_0" pos="129.00"/>
        <detExit lane="-477694276#2_0" pos="5.00"/>
        <detExit lane="700335842#0_0" pos="5.00"/>
        <detExit lane="507132798#2_0" pos="3.00"/>
        <detExit lane="507132798#2_1" pos="3.00"/>
        <detExit lane="507132798#2_2" pos="3.00"/>
        <detExit lane="156268175#8_2" pos="3.00"/>
        <detExit lane="156268175#8_1" pos="3.00"/>
        <detExit lane="156268175#8_0" pos="3.00"/>
    </entryExitDetector>
    <entryExitDetector id="e3_2" pos="1062.26,966.53" period="100.00" file="Torres2Belizario.xml">
        <detEntry lane="507132798#1_2" pos="43.00"/>
        <detEntry lane="156268175#7_2" pos="43.00"/>
        <detExit lane="156268175#8_2" pos="5.00"/>
        <detExit lane="507132798#2_2" pos="5.00"/>
        <detExit lane="700335842#0_0" pos="3.00"/>
        <detExit lane="-477694276#2_0" pos="3.00"/>
    </entryExitDetector>
    <!-- Shapes -->
    <poly id="1042507987" type="amenity.bus_station" color="237,199,199" fill="1" layer="-1.00" shape="1834.102973,1256.346548 1809.724005,1322.697705 1813.620187,1328.300333 1837.887836,1262.187057 1834.102973,1256.346548"/>
    <poly id="1042507987#1" type="building.transportation" color="255,230,230" fill="1" layer="-1.00" shape="1834.102973,1256.346548 1809.724005,1322.697705 1813.620187,1328.300333 1837.887836,1262.187057 1834.102973,1256.346548"/>
    <poly id="1042507990" type="amenity.bus_station" color="237,199,199" fill="1" layer="-1.00" shape="1994.336248,849.656617 1969.311627,915.720806 1972.484232,920.942671 1998.054319,855.532680 1995.750006,851.880957 1994.336248,849.656617"/>
    <poly id="1042507990#1" type="building.transportation" color="255,230,230" fill="1" layer="-1.00" shape="1994.336248,849.656617 1969.311627,915.720806 1972.484232,920.942671 1998.054319,855.532680 1995.750006,851.880957 1994.336248,849.656617"/>
    <poly id="1043245696" type="amenity.bus_station" color="237,199,199" fill="0" layer="-1.00" shape="2319.756516,55.382679 2320.435564,56.465064 2322.984781,60.568612"/>
    <poly id="1043245696#1" type="building.transportation" color="255,230,230" fill="0" layer="-1.00" shape="2319.756516,55.382679 2320.435564,56.465064 2322.984781,60.568612"/>
    <poly id="1248222383" type="leisure.garden" color="207,245,201" fill="1" layer="-2.00" shape="2373.156475,1064.241215"/>
    <poly id="1248222384" type="leisure.garden" color="207,245,201" fill="0" layer="-2.00" shape="2365.998632,964.133139 2360.065303,1026.177243 2369.193501,1048.420867"/>
    <poly id="1248222385" type="leisure.garden" color="207,245,201" fill="1" layer="-2.00" shape="2351.972376,1002.089927 2355.623655,928.757628 2347.074319,928.127197 2295.477735,799.091626 2270.519905,797.307401 2351.972376,1002.089927"/>
    <poly id="1248222386" type="leisure.garden" color="207,245,201" fill="1" layer="-2.00" shape="2272.056114,820.002748 2262.805464,796.593712 2249.012979,795.796758 2253.721794,822.845616 2272.056114,820.002748"/>
    <poly id="1248222387" type="leisure.garden" color="207,245,201" fill="1" layer="-2.00" shape="2248.400722,787.636908 2242.422865,749.966046 2244.649255,749.525938 2259.643991,788.386282 2248.400722,787.636908"/>
    <poly id="1248222389" type="leisure.garden" color="207,245,201" fill="1" layer="-2.00" shape="2268.070876,789.218920 2295.767165,791.467041 2272.356676,729.423742 2247.521298,729.019320 2244.760575,734.431447 2268.070876,789.218920"/>
    <poly id="1248222390" type="leisure.garden" color="207,245,201" fill="1" layer="-2.00" shape="2241.521177,720.562131 2239.962705,709.797360 2265.766563,716.839065 2248.178083,717.766858 2244.304165,718.932546 2241.521177,720.562131"/>
    <poly id="1248222391" type="leisure.garden" color="207,245,201" fill="1" layer="-2.00" shape="2231.057145,671.139395 2282.342035,675.159820 2295.978672,672.531081 2275.685129,668.808025 2258.642115,663.074760 2246.085277,655.949812 2237.524808,649.919182 2231.168465,641.664240 2225.012497,625.427946 2220.682169,625.427946 2231.057145,671.139395"/>
    <poly id="1248222392" type="leisure.garden" color="207,245,201" fill="1" layer="-2.00" shape="2337.567634,678.347613 2338.513850,674.707819 2350.246924,681.725722 2337.567634,678.347613"/>
    <poly id="1248222393" type="man_made.bridge" color="255,230,230" fill="1" layer="-1.00" shape="1845.101339,670.128342 1846.993770,652.321918 2325.433810,687.518467 2324.086844,707.894196 1845.101339,670.128342"/>
    <poly id="1248222394" type="leisure.garden" color="207,245,201" fill="1" layer="-2.00" shape="2368.492189,722.179821 2376.184365,718.278333 2368.492189,722.179821"/>
    <poly id="1248222398" type="leisure.garden" color="207,245,201" fill="1" layer="-2.00" shape="2154.536127,535.278121 2192.562865,550.610340 2188.677815,530.579733 2190.113837,509.716523 2200.132591,476.804085 2210.151345,449.410801 2226.303803,422.624182 2233.739945,413.025257 2233.739945,407.292072 2209.416636,398.918295 2154.536127,535.278121"/>
    <poly id="153097535" type="sport.soccer" color="79,230,125" fill="1" layer="-2.00" shape="1389.782358,567.179618 1418.157696,563.385216 1409.864394,518.066562 1381.611507,521.254327 1389.782358,567.179618"/>
    <poly id="155207474" type="landuse.grass" color="194,194,130" fill="1" layer="-3.00" shape="234.942828,184.841149 447.863618,209.177161 450.902640,326.504318 262.750437,338.672415 234.942828,184.841149"/>
    <poly id="155290449" type="natural.grassland" color="140,196,107" fill="1" layer="-4.00" shape="3.086593,925.879059"/>
    <poly id="155290481" type="leisure.pitch" color="207,245,201" fill="1" layer="-2.00" shape="-1.432979,1059.162049"/>
    <poly id="155290481#1" type="sport.soccer" color="79,230,125" fill="1" layer="-2.00" shape="-1.432979,1059.162049"/>
    <poly id="156275262" type="historic.archaeological_site" color="128,255,128" fill="1" layer="-1.00" shape="1380.921326,651.203813 1395.993985,754.141120 1173.544247,779.548431 1211.237026,1006.954967 1215.634146,1019.004572 1237.686537,1013.782679 1328.089096,972.673707 1376.167984,961.968261 1389.826885,970.461247 1394.569096,994.929160 1408.606483,1008.370468 1448.403201,1000.543581 1565.444514,974.267629 1606.365559,948.705411 1613.723777,939.165681 1701.599383,865.583845 1712.942839,846.468794 1723.095177,831.540750 1728.471908,811.236251 1744.090033,790.658193 1776.216838,764.453915 1766.153556,683.950041 1380.921326,651.203813"/>
    <poly id="167557938" type="tourism.motel" color="207,245,201" fill="1" layer="-2.00" shape="1540.965358,607.799986 1586.116543,612.212922 1554.724447,474.270532 1513.013034,482.442135 1540.965358,607.799986"/>
    <poly id="167557939" type="leisure.pitch" color="207,245,201" fill="1" layer="-2.00" shape="1437.850114,603.387051 1463.008319,597.368334 1450.752043,542.319759 1425.271011,547.482043 1437.850114,603.387051"/>
    <poly id="167557939#1" type="sport.soccer" color="79,230,125" fill="1" layer="-2.00" shape="1437.850114,603.387051 1463.008319,597.368334 1450.752043,542.319759 1425.271011,547.482043 1437.850114,603.387051"/>
    <poly id="167557940" type="leisure.track" color="207,245,201" fill="1" layer="-2.00" shape="278.468749,442.357305 272.891642,445.081167 268.026981,448.720914 264.987959,453.669068 261.948937,459.211954 260.357068,465.075996 260.045373,470.844883 261.036117,477.386922 263.997215,483.774333 268.795085,488.793864 274.494643,492.742880 282.175688,494.943387 289.845601,495.026649 297.304007,492.968878 301.333772,491.600996 302.313384,490.459112 311.820068,491.303630 312.120631,494.943387 314.480604,496.085271 390.734455,497.453154 379.402131,438.919767 278.468749,442.357305"/>
    <poly id="167557940#1" type="sport.horse_racing" color="79,230,125" fill="1" layer="-2.00" shape="278.468749,442.357305 272.891642,445.081167 268.026981,448.720914 264.987959,453.669068 261.948937,459.211954 260.357068,465.075996 260.045373,470.844883 261.036117,477.386922 263.997215,483.774333 268.795085,488.793864 274.494643,492.742880 282.175688,494.943387 289.845601,495.026649 297.304007,492.968878 301.333772,491.600996 302.313384,490.459112 311.820068,491.303630 312.120631,494.943387 314.480604,496.085271 390.734455,497.453154 379.402131,438.919767 278.468749,442.357305"/>
    <poly id="167557942" type="building.industrial" color="255,230,230" fill="1" layer="-1.00" shape="1744.212484,1022.085370 1745.080776,1027.509480 1749.433368,1026.867152 1751.370328,1037.560741 1855.654426,1016.542312 1852.270314,996.653929 1839.101218,999.021026 1838.288586,994.774526 1752.283147,1010.951676 1754.053127,1018.052974 1747.819236,1019.230576 1748.086403,1021.228932 1744.212484,1022.085370"/>
    <poly id="167557943" type="building.industrial" color="255,230,230" fill="1" layer="-1.00" shape="905.152954,325.279182 873.760858,333.022516 895.045145,433.008155 809.896866,454.085380 822.364649,504.399620 850.539612,496.882212 867.315459,517.519408 866.235660,521.825270 869.029780,529.342689 953.320898,508.919582 933.750932,424.408370 923.220108,425.062572 911.820992,373.023842 915.260764,372.369642 905.152954,325.279182"/>
    <poly id="167557944" type="building.industrial" color="255,230,230" fill="1" layer="-1.00" shape="1662.938124,954.807510 1681.406028,1047.029153 1709.536463,1041.557457 1704.137468,1014.710487 1871.472926,981.345123 1864.248291,942.115622 1696.534346,976.242190 1692.582504,955.723420 1877.250408,918.920536 1869.413516,882.426994 1701.710703,933.824862 1697.981500,909.880408 1684.522973,912.080965 1690.834788,948.645936 1662.938124,954.807510"/>
    <poly id="167557945" type="building.industrial" color="255,230,230" fill="1" layer="-1.00" shape="918.900911,674.624556 920.726551,683.010355 924.867636,682.094459 938.838232,747.087505 927.494776,749.288042 923.954816,731.600488 914.214361,733.646391 915.672646,741.282846 911.587221,742.091692 914.915674,757.198084 919.168078,756.008604 927.606096,793.584320 945.506270,791.336198 940.508025,766.761507 962.337777,762.193902 968.137522,788.802601 1020.012405,782.403187 1015.826792,764.323072 1047.118701,757.019662 1051.849779,779.167797 1106.140295,772.708913 1077.330811,638.964137 918.900911,674.624556"/>
    <poly id="167557946" type="building.industrial" color="255,230,230" fill="1" layer="-1.00" shape="683.126230,209.593467 637.963913,205.787246 645.567034,235.892098 578.975714,252.770344 590.530678,299.753564 596.230235,298.231068 596.875889,300.229344 598.645868,299.848720 599.124542,302.156254 594.616103,303.345704 598.323042,317.583431 661.708360,300.491023 669.500724,331.785485 601.005842,348.497297 612.894763,400.916582 682.235674,382.741692 687.289579,404.782318 617.625842,423.171333 639.288614,538.204207 757.554442,546.435312 718.959974,374.356032 746.689659,367.040884 742.281407,346.832063 718.369981,352.481966 683.126230,209.593467"/>
    <poly id="167557947" type="building.industrial" color="255,230,230" fill="1" layer="-1.00" shape="943.535915,342.776027 944.181568,344.358000 945.439478,345.226301 946.519277,345.606926 948.177938,345.666398 967.692244,341.003743 974.171039,369.538739 969.039210,370.644932 968.415821,367.683190 949.391320,371.965227 955.591816,399.227554 974.783296,395.230980 973.714629,392.043237 978.735138,390.972726 1017.808279,562.493115 1033.014521,559.138818 1026.992137,534.552547 1103.335044,518.018983 1092.236491,467.312183 1084.488654,469.286689 1084.176959,467.347867 1036.688065,477.660498 1019.344488,400.940372 1024.854803,399.643864 1023.674816,395.052561 1034.127716,392.649860 1034.739974,394.707619 1065.942827,387.106994 1064.350958,379.042485 993.418179,395.278558 973.380670,306.628587 941.331789,314.193495 946.330034,338.636731 944.715901,339.505032 943.881005,340.920481 943.535915,342.776027"/>
    <poly id="168897914" type="waterway.canal" color="181,209,209" fill="0" layer="-4.00" shape="2182.499583,265.093020 2139.830823,292.771493 2140.164781,313.670136 2135.901245,331.714118 2116.642973,336.852553 2081.644125,349.651067 2063.265277,352.826908 2045.866040,354.908452 1972.473100,358.084294 1955.185183,361.581289 1921.377454,380.719617 1917.993341,427.976745 1918.316168,445.366638"/>
    <poly id="183463184" type="waterway.canal" color="181,209,209" fill="0" layer="-4.00" shape="1946.435471,643.151081 1933.856369,691.277211"/>
    <poly id="183463185" type="waterway.canal" color="181,209,209" fill="0" layer="-4.00" shape="1933.856369,691.277211 1931.886014,698.723331 1927.511158,708.786304 1921.165947,718.409176 1912.961700,728.365107"/>
    <poly id="283268497" type="leisure.sports_centre" color="207,245,201" fill="1" layer="-2.00" shape="1327.220804,328.823749 1340.055941,293.711158 1377.681929,293.116434 1384.772980,321.092313 1403.485787,346.106496 1427.330422,445.985157 1377.848908,442.488145 1373.674427,417.985296 1345.710971,423.896902 1333.888841,364.792815 1327.220804,328.823749"/>
    <poly id="291224425" type="leisure.park" color="207,245,201" fill="1" layer="-2.00" shape="2183.835417,1334.176551 2049.829014,1332.392274 2052.734453,1324.838837 2064.445263,1325.362224 2084.249001,1326.004564 2115.173555,1327.348719 2179.861311,1329.799125 2183.835417,1334.176551"/>
    <poly id="467059953" type="leisure.park" color="207,245,201" fill="1" layer="-2.00" shape="1222.547087,10.612435 1289.427837,45.843420 1222.547087,10.612435"/>
    <poly id="467061025" type="amenity.college" color="237,199,199" fill="1" layer="-2.00" shape="1486.240696,217.122650 1492.752887,216.266250 1723.206496,198.258067 1722.872538,206.037029 1709.135713,377.864924 1699.473181,381.504658 1662.437186,369.479267 1647.486979,362.782638 1634.729765,352.648490 1616.718271,333.950288 1563.429631,277.736855 1524.367622,242.636258 1486.240696,217.122650"/>
    <poly id="467061026" type="leisure.sports_centre" color="207,245,201" fill="1" layer="-2.00" shape="1468.885988,45.772054 1492.752887,216.266250 1723.206496,198.258067 1734.138070,111.833309 1616.117146,8.626085 1575.518928,15.417737 1533.128466,26.776812 1533.150730,30.725727 1468.885988,45.772054"/>
    <poly id="467061027" type="leisure.pitch" color="207,245,201" fill="1" layer="-2.00" shape="1488.578406,126.760760 1547.633395,121.955428 1533.462424,31.915159 1475.208935,44.987028 1488.578406,126.760760"/>
    <poly id="467061027#1" type="sport.soccer" color="79,230,125" fill="1" layer="-2.00" shape="1488.578406,126.760760 1547.633395,121.955428 1533.462424,31.915159 1475.208935,44.987028 1488.578406,126.760760"/>
    <poly id="467061028" type="leisure.pitch" color="207,245,201" fill="1" layer="-2.00" shape="1533.874306,25.111606 1591.326296,14.418615 1602.280133,112.701599 1547.633395,121.955428 1533.874306,25.111606"/>
    <poly id="467061028#1" type="sport.soccer" color="79,230,125" fill="1" layer="-2.00" shape="1533.874306,25.111606 1591.326296,14.418615 1602.280133,112.701599 1547.633395,121.955428 1533.874306,25.111606"/>
    <poly id="467061029" type="leisure.pitch" color="207,245,201" fill="1" layer="-2.00" shape="1591.326296,14.418615 1673.702719,99.891358 1602.280133,112.701599 1591.326296,14.418615"/>
    <poly id="467061029#1" type="sport.soccer" color="79,230,125" fill="1" layer="-2.00" shape="1591.326296,14.418615 1673.702719,99.891358 1602.280133,112.701599 1591.326296,14.418615"/>
    <poly id="467061030" type="leisure.pitch" color="207,245,201" fill="1" layer="-2.00" shape="1585.326175,126.011414 1593.229859,202.456803 1596.669631,204.692957 1675.795525,199.614033 1690.122344,197.223251 1688.630663,186.470686 1681.461687,130.638331 1675.350247,118.399007 1646.384916,118.696367 1585.326175,126.011414"/>
    <poly id="467061030#1" type="sport.baseball" color="79,230,125" fill="1" layer="-2.00" shape="1585.326175,126.011414 1593.229859,202.456803 1596.669631,204.692957 1675.795525,199.614033 1690.122344,197.223251 1688.630663,186.470686 1681.461687,130.638331 1675.350247,118.399007 1646.384916,118.696367 1585.326175,126.011414"/>
    <poly id="467061031" type="leisure.pitch" color="207,245,201" fill="1" layer="-2.00" shape="1488.422558,135.871864 1580.984715,125.119335 1593.229859,202.456803 1590.535927,208.130451 1579.192471,210.211978 1503.061071,214.398822 1496.493221,211.413317 1495.591534,191.406874 1490.815927,144.233624 1488.422558,135.871864"/>
    <poly id="467061031#1" type="sport.baseball" color="79,230,125" fill="1" layer="-2.00" shape="1488.422558,135.871864 1580.984715,125.119335 1593.229859,202.456803 1590.535927,208.130451 1579.192471,210.211978 1503.061071,214.398822 1496.493221,211.413317 1495.591534,191.406874 1490.815927,144.233624 1488.422558,135.871864"/>
    <poly id="557534420" type="building.yes" color="255,230,230" fill="1" layer="-1.00" shape="1982.881473,1069.796183 2037.249912,1069.724813 2052.155592,1028.591924 2005.579517,1013.068981 1982.881473,1069.796183"/>
    <poly id="557534421" type="building.yes" color="255,230,230" fill="1" layer="-1.00" shape="1983.182035,1004.112070 2052.155592,1027.402426 2060.549081,1007.026337 1991.074587,985.103927 1983.182035,1004.112070"/>
    <poly id="637373303" type="amenity.bank" color="237,199,199" fill="1" layer="-1.00" shape="587.191093,535.516014 604.089392,536.431903 613.507020,533.993499 622.746538,531.602673 622.100885,528.688483 612.983819,530.662995 603.265627,532.768349 598.289646,513.320599 603.031856,512.571237 601.840738,507.004545 582.560202,511.191458 587.191093,535.516014"/>
    <poly id="637373303#1" type="building.yes" color="255,230,230" fill="1" layer="-1.00" shape="587.191093,535.516014 604.089392,536.431903 613.507020,533.993499 622.746538,531.602673 622.100885,528.688483 612.983819,530.662995 603.265627,532.768349 598.289646,513.320599 603.031856,512.571237 601.840738,507.004545 582.560202,511.191458 587.191093,535.516014"/>
    <poly id="637373305" type="building.retail" color="255,230,230" fill="1" layer="-1.00" shape="656.198045,587.067529 670.190905,585.235747 672.472955,602.673369 658.480095,604.493259 656.198045,587.067529"/>
    <poly id="637373305#1" type="shop.convenience" color="237,199,255" fill="1" layer="-1.00" shape="656.198045,587.067529 670.190905,585.235747 672.472955,602.673369 658.480095,604.493259 656.198045,587.067529"/>
    <poly id="637373306" type="amenity.fast_food" color="237,199,199" fill="1" layer="-1.00" shape="724.381233,613.747339 721.698434,600.615586 728.566846,598.819487 730.659653,613.449971 724.381233,613.747339"/>
    <poly id="637373306#1" type="building.yes" color="255,230,230" fill="1" layer="-1.00" shape="724.381233,613.747339 721.698434,600.615586 728.566846,598.819487 730.659653,613.449971 724.381233,613.747339"/>
    <poly id="637373308" type="building.yes" color="255,230,230" fill="1" layer="-1.00" shape="734.233008,612.855236 733.943578,588.970679 757.532178,588.970679 761.706659,611.071030 734.233008,612.855236"/>
    <poly id="637373308#1" type="shop.wine" color="237,199,255" fill="1" layer="-1.00" shape="734.233008,612.855236 733.943578,588.970679 757.532178,588.970679 761.706659,611.071030 734.233008,612.855236"/>
    <poly id="687849410" type="waterway.canal" color="181,209,209" fill="0" layer="-4.00" shape="106.903150,289.012832 119.070370,266.365729"/>
    <poly id="742814610" type="leisure.park" color="207,245,201" fill="1" layer="-2.00" shape="2211.253408,1150.670520 2213.067916,1143.807071 2210.474171,1134.659775 2209.561352,1130.175342 2200.488813,1131.959599 2192.696449,1133.672486 2175.542115,1137.538378 2145.519249,1143.759491 2144.428318,1144.033077 2143.370782,1144.425614 2143.649081,1145.496169 2145.207554,1146.566724 2207.056663,1152.966267 2210.707942,1152.740260 2211.253408,1150.670520"/>
    <poly id="824704323" type="leisure.park" color="207,245,201" fill="1" layer="-2.00" shape="2072.861017,973.708567 2091.406844,981.535442 2098.887514,963.823871 2092.564567,961.159405 2102.037855,944.970404 2111.711519,949.740270 2266.389952,938.035664 2255.692149,866.333222 2213.657909,866.571120 2220.069912,861.955909 2236.912551,861.575274 2236.578592,845.493415 2180.150742,851.797692 2177.980012,864.299199 2115.173555,871.483704 2117.344285,843.150128 2049.072042,841.889273 2032.140347,888.017590 2080.241499,885.519664 2081.966951,918.801587 2080.252631,932.849479 2088.345558,938.987258 2088.089523,943.923651 2051.788237,941.972883 2050.151841,972.483388 2072.861017,973.708567"/>
    <poly id="824708249" type="building.yes" color="255,230,230" fill="1" layer="-1.00" shape="2129.522638,749.192884 2122.208947,747.254032 2121.463107,749.799519 2099.221472,748.598144 2094.290019,739.343995 2104.598204,713.520423 2112.802450,710.832205 2135.500494,712.473683 2134.899369,715.304639 2140.877226,717.695489 2129.522638,749.192884"/>
    <poly id="824708249#1" type="shop.mall" color="237,199,255" fill="1" layer="-1.00" shape="2129.522638,749.192884 2122.208947,747.254032 2121.463107,749.799519 2099.221472,748.598144 2094.290019,739.343995 2104.598204,713.520423 2112.802450,710.832205 2135.500494,712.473683 2134.899369,715.304639 2140.877226,717.695489 2129.522638,749.192884"/>
    <poly id="824708250" type="building.house" color="255,230,230" fill="1" layer="-1.00" shape="2182.844674,1178.124341 2180.473569,1163.041387 2194.343977,1160.769429 2196.770742,1175.566899 2182.844674,1178.124341"/>
    <poly id="824708251" type="building.house" color="255,230,230" fill="1" layer="-1.00" shape="2182.844674,1178.124341 2184.080320,1186.201101 2197.872805,1183.631763 2196.770742,1175.566899 2182.844674,1178.124341"/>
    <poly id="824708251#1" type="leisure.dance" color="207,245,201" fill="1" layer="-2.00" shape="2182.844674,1178.124341 2184.080320,1186.201101 2197.872805,1183.631763 2196.770742,1175.566899 2182.844674,1178.124341"/>
    <poly id="824708252" type="amenity.place_of_worship" color="237,199,199" fill="1" layer="-1.00" shape="2184.080320,1186.201101 2185.516342,1195.598220 2185.649925,1196.490352 2199.520334,1194.135124 2197.872805,1183.631763 2184.080320,1186.201101"/>
    <poly id="824708252#1" type="building.house" color="255,230,230" fill="1" layer="-1.00" shape="2184.080320,1186.201101 2185.516342,1195.598220 2185.649925,1196.490352 2199.520334,1194.135124 2197.872805,1183.631763 2184.080320,1186.201101"/>
    <poly id="824708253" type="amenity.library" color="237,199,199" fill="1" layer="-1.00" shape="2185.649925,1196.490352 2186.384634,1200.986696 2187.208398,1206.613077 2201.223522,1204.364903 2199.520334,1194.135124 2185.649925,1196.490352"/>
    <poly id="824708253#1" type="building.yes" color="255,230,230" fill="1" layer="-1.00" shape="2185.649925,1196.490352 2186.384634,1200.986696 2187.208398,1206.613077 2201.223522,1204.364903 2199.520334,1194.135124 2185.649925,1196.490352"/>
    <poly id="824708254" type="building.house" color="255,230,230" fill="1" layer="-1.00" shape="2187.208398,1206.613077 2188.867058,1216.914234 2202.993502,1214.761220 2201.223522,1204.364903 2187.208398,1206.613077"/>
    <poly id="824708255" type="building.house" color="255,230,230" fill="1" layer="-1.00" shape="2188.867058,1216.914234 2190.503455,1227.120236 2197.460923,1226.025886 2204.663294,1225.121858 2202.993502,1214.761220 2188.867058,1216.914234"/>
    <poly id="824708256" type="building.house" color="255,230,230" fill="1" layer="-1.00" shape="2190.503455,1227.120236 2192.150983,1237.492776 2206.099315,1235.304075 2204.663294,1225.121858 2197.460923,1226.025886 2190.503455,1227.120236"/>
    <poly id="824708257" type="building.house" color="255,230,230" fill="1" layer="-1.00" shape="2192.150983,1237.492776 2193.687192,1247.734475 2207.635524,1245.593353 2206.099315,1235.304075 2192.150983,1237.492776"/>
    <poly id="824708258" type="building.house" color="255,230,230" fill="1" layer="-1.00" shape="2193.687192,1247.734475 2195.112082,1258.035656 2208.537212,1255.264091 2207.635524,1245.593353 2193.687192,1247.734475"/>
    <poly id="824708259" type="building.house" color="255,230,230" fill="1" layer="-1.00" shape="2195.112082,1258.035656 2196.381124,1268.098940 2209.939838,1267.064063 2208.537212,1255.264091 2195.112082,1258.035656"/>
    <poly id="824708260" type="building.house" color="255,230,230" fill="1" layer="-1.00" shape="2196.381124,1268.098940 2197.293944,1280.612629 2210.830394,1279.625332 2209.939838,1267.064063 2196.381124,1268.098940"/>
    <poly id="824708261" type="building.house" color="255,230,230" fill="1" layer="-1.00" shape="2207.635524,1245.593353 2208.537212,1255.264091 2224.945705,1253.301394 2223.342705,1243.178643 2207.635524,1245.593353"/>
    <poly id="824708262" type="building.house" color="255,230,230" fill="1" layer="-1.00" shape="2208.537212,1255.264091 2209.939838,1267.064063 2219.168224,1265.815074 2226.459650,1264.970519 2224.945705,1253.301394 2208.537212,1255.264091"/>
    <poly id="824708263" type="building.house" color="255,230,230" fill="1" layer="-1.00" shape="2209.850782,1266.885636 2210.763602,1279.732388 2220.548585,1279.030575 2219.168224,1265.815074 2209.850782,1266.885636"/>
    <poly id="824708264" type="building.house" color="255,230,230" fill="1" layer="-1.00" shape="2219.168224,1265.815074 2220.849148,1280.339041 2228.140575,1279.494486 2226.459650,1264.970519 2219.168224,1265.815074"/>
    <poly id="824708265" type="building.house" color="255,230,230" fill="1" layer="-1.00" shape="2206.099315,1235.304075 2207.635524,1245.593353 2223.342705,1243.178643 2222.407621,1233.067793 2206.099315,1235.304075"/>
    <poly id="824708266" type="building.house" color="255,230,230" fill="1" layer="-1.00" shape="2204.663294,1225.121858 2206.099315,1235.304075 2222.407621,1233.067793 2220.993863,1222.837997 2204.663294,1225.121858"/>
    <poly id="824708267" type="building.house" color="255,230,230" fill="1" layer="-1.00" shape="2202.993502,1214.761220 2204.663294,1225.121858 2220.993863,1222.837997 2219.580106,1212.084822 2202.993502,1214.761220"/>
    <poly id="824708268" type="building.house" color="255,230,230" fill="1" layer="-1.00" shape="2201.223522,1204.364903 2202.993502,1214.761220 2219.580106,1212.084822 2217.821258,1201.438710 2201.223522,1204.364903"/>
    <poly id="824708269" type="building.house" color="255,230,230" fill="1" layer="-1.00" shape="2199.520334,1194.135124 2201.223522,1204.364903 2217.821258,1201.438710 2215.973354,1191.280303 2199.520334,1194.135124"/>
    <poly id="824708270" type="building.chapel" color="255,230,230" fill="1" layer="-1.00" shape="2197.872805,1183.631763 2199.520334,1194.135124 2215.973354,1191.280303 2214.192242,1180.979160 2197.872805,1183.631763"/>
    <poly id="824708271" type="building.house" color="255,230,230" fill="1" layer="-1.00" shape="2196.770742,1175.566899 2197.872805,1183.631763 2214.192242,1180.979160 2212.644902,1172.949982 2196.770742,1175.566899"/>
    <poly id="824708272" type="building.house" color="255,230,230" fill="1" layer="-1.00" shape="2194.343977,1160.769429 2196.770742,1175.566899 2212.644902,1172.949982 2210.218137,1158.164410 2194.343977,1160.769429"/>
    <poly id="824708273" type="building.house" color="255,230,230" fill="1" layer="-1.00" shape="2160.959262,1158.604527 2160.625303,1174.734244 2173.059691,1174.389286 2172.247058,1158.509366 2160.959262,1158.604527"/>
    <poly id="824708274" type="building.house" color="255,230,230" fill="1" layer="-1.00" shape="2148.268840,1158.652107 2148.291104,1175.233837 2154.157641,1175.257627 2160.625303,1174.734244 2160.959262,1158.604527 2148.268840,1158.652107"/>
    <poly id="824708275" type="building.house" color="255,230,230" fill="1" layer="-1.00" shape="2136.257467,1158.735373 2136.413314,1175.317102 2138.628572,1175.376578 2146.331881,1175.328997 2148.291104,1175.233837 2148.268840,1158.652107 2136.257467,1158.735373"/>
    <poly id="824708276" type="building.house" color="255,230,230" fill="1" layer="-1.00" shape="2124.468733,1158.842428 2124.624580,1175.424158 2131.214694,1175.471738 2136.413314,1175.483633 2136.257467,1158.735373 2124.468733,1158.842428"/>
    <poly id="824708277" type="building.house" color="255,230,230" fill="1" layer="-1.00" shape="2116.320146,1174.805614 2108.438726,1194.444396 2123.500253,1194.384921 2123.299878,1174.841299 2116.320146,1174.805614"/>
    <poly id="824708278" type="building.house" color="255,230,230" fill="1" layer="-1.00" shape="2116.320146,1174.805614 2123.299878,1174.841299 2124.624580,1175.424158 2124.468733,1158.842428 2116.320146,1174.805614"/>
    <poly id="824708279" type="building.house" color="255,230,230" fill="1" layer="-1.00" shape="2123.299878,1174.841299 2123.500253,1194.384921 2131.192430,1194.408711 2131.214694,1175.471738 2124.624580,1175.424158 2123.299878,1174.841299"/>
    <poly id="824708280" type="building.house" color="255,230,230" fill="1" layer="-1.00" shape="2131.214694,1175.471738 2131.192430,1194.408711 2138.817815,1194.313550 2138.628572,1175.376578 2136.413314,1175.483633 2131.214694,1175.471738"/>