<?xml version="1.0" encoding="UTF-8"?>

<!-- generated on 2024-12-02 00:14:29 by Eclipse SUMO netedit Version 1.21.0
-->

<routes xmlns:xsi="http://www.w3.org/2001/XMLSchema-instance" xsi:noNamespaceSchemaLocation="http://sumo.dlr.de/xsd/routes_file.xsd">
    <!-- VTypes -->
    <vType id="Bus" maxSpeed="40.00" vClass="bus" color="red"/>
    <vType id="DEFAULT_BIKETYPE" vClass="motorcycle"/>
    <vType id="DEFAULT_VEHTYPE" color="yellow"/>
    <!-- Vehicles, persons and containers (sorted by depart) -->
    <flow id="f_0" begin="0.00" from="-700335842#1" to="-477694276#2" number="100" vehsPerHour="300"/>
    <flow id="f_1" begin="0.00" from="477694276#2" to="700335842#0" number="100" vehsPerHour="300"/>
    <flow id="f_10" type="Bus" begin="0.00" color="red" from="156268175#6" to="156268175#6" via="156268175#7 156268175#8 -466818182#2 700328594#1 477694276#2 700335842#0 -700335842#1 507132798#2 507132798#3 507132798#4" number="200" vehsPerHour="100"/>
    <flow id="f_11" begin="0.00" from="156268175#7" to="156268175#8" end="3600.00" vehsPerHour="1800"/>
    <flow id="f_12" begin="0.00" from="507132798#1" to="507132798#2" end="3600.00" vehsPerHour="1800"/>
    <flow id="f_13" type="DEFAULT_BIKETYPE" begin="0.00" color="magenta" from="-700335842#1" to="-477694280#2" end="3600.00" vehsPerHour="100"/>
    <flow id="f_14" type="DEFAULT_BIKETYPE" begin="0.00" color="magenta" from="477694276#2" to="156268175#10" end="3600.00" vehsPerHour="100"/>
    <flow id="f_2" begin="0.00" from="700328604#2" to="507132798#4" via="700328604#3" end="3600.00" vehsPerHour="1800"/>
    <flow id="f_3" begin="0.00" from="156268175#6" to="156268175#10" end="3600.00" vehsPerHour="1800"/>
    <flow id="f_4" begin="0.00" from="156268175#6" to="-477694276#1" via="-477694276#2" number="1800" vehsPerHour="1800"/>
    <flow id="f_5" begin="0.00" from="700328604#2" to="700335842#0" end="3600.00" vehsPerHour="1800"/>
    <flow id="f_6" begin="0.00" from="156268175#6" to="156268175#6" via="507132798#3 507132798#4" end="3600.00" vehsPerHour="1800"/>
    <flow id="f_7" begin="0.00" from="700328604#2" to="700328605#2" via="156268175#8 156268175#10" end="3600.00" vehsPerHour="1800"/>
    <flow id="f_8" type="DEFAULT_TAXITYPE" begin="0.00" color="green" from="156268175#6" to="156268175#6" via="477694276#2 -700328594#1 466818182#2 507132798#1 507132798#2 507132798#3 507132798#4" number="1800" vehsPerHour="200"/>
    <flow id="f_9" type="Bus" begin="0.00" color="red" from="477694276#1" to="477694276#1" via="477694276#2 156268175#8 -466818182#2 -466818182#1 153090303#1" end="3600.00" number="50"/>
</routes>
