<?xml version="1.0" encoding="UTF-8"?>

<!-- generated on 2024-11-19 00:17:39.854897 by osmWebWizard.py v1_21_0+0000-d7b3b481c43
<configuration>
    <net-file value="C:\Users\Estiven Angel\Sumo\2024-11-19-00-17-31\osm.net.xml.gz"/>
    <output-trip-file value="C:\Users\Estiven Angel\Sumo\2024-11-19-00-17-31\osm.truck.trips.xml"/>
    <route-file value="C:\Users\Estiven Angel\Sumo\2024-11-19-00-17-31\osm.truck.rou.xml"/>
    <prefix value="truck"/>
    <trip-attributes value="departLane=&quot;best&quot;"/>
    <fringe-start-attributes value="departSpeed=&quot;max&quot;"/>
    <vehicle-class value="truck"/>
    <fringe-factor value="5"/>
    <vclass value="truck"/>
    <via-edge-types value="highway.motorway,highway.motorway_link,highway.trunk_link,highway.primary_link,highway.secondary_link,highway.tertiary_link"/>
    <min-distance value="600.0"/>
    <min-distance.fringe value="10.0"/>
    <remove-loops value="True"/>
    <validate value="True"/>
    <insertion-density value="8.0"/>
</configuration>
-->

<!-- generated on 2024-11-19 00:17:39 by Eclipse SUMO duarouter Version 1.21.0
<duarouterConfiguration xmlns:xsi="http://www.w3.org/2001/XMLSchema-instance" xsi:noNamespaceSchemaLocation="http://sumo.dlr.de/xsd/duarouterConfiguration.xsd">

    <input>
        <net-file value="C:\Users\Estiven Angel\Sumo\2024-11-19-00-17-31\osm.net.xml.gz"/>
        <route-files value="C:\Users\Estiven Angel\Sumo\2024-11-19-00-17-31\osm.truck.trips.xml"/>
    </input>

    <output>
        <output-file value="C:\Users\Estiven Angel\Sumo\2024-11-19-00-17-31\osm.truck.trips.xml.tmp"/>
        <alternatives-output value="NUL"/>
        <write-trips value="true"/>
    </output>

    <processing>
        <remove-loops value="true"/>
    </processing>

    <time>
        <begin value="0.0"/>
        <end value="3600.0"/>
    </time>

    <report>
        <no-warnings value="true"/>
        <ignore-errors value="true"/>
        <no-step-log value="true"/>
    </report>

</duarouterConfiguration>
-->

<routes xmlns:xsi="http://www.w3.org/2001/XMLSchema-instance" xsi:noNamespaceSchemaLocation="http://sumo.dlr.de/xsd/routes_file.xsd">
    <vType id="truck_truck" vClass="truck"/>
    <trip id="truck0" type="truck_truck" depart="0.00" departLane="best" from="156275582#4" to="-152564756"/>
    <trip id="truck1" type="truck_truck" depart="4.36" departLane="best" from="296391598#4" to="-284274024#2"/>
    <trip id="truck3" type="truck_truck" depart="13.09" departLane="best" departSpeed="max" from="-946207933#3" to="152752292#1"/>
    <trip id="truck4" type="truck_truck" depart="17.45" departLane="best" from="-284274024#10" to="153090253"/>
    <trip id="truck6" type="truck_truck" depart="26.18" departLane="best" from="466818184#2" to="284274024#18"/>
    <trip id="truck7" type="truck_truck" depart="30.55" departLane="best" from="-687849225#6" to="-156268043#4"/>
    <trip id="truck8" type="truck_truck" depart="34.91" departLane="best" from="90231646#9" to="-477694280#1"/>
    <trip id="truck9" type="truck_truck" depart="39.27" departLane="best" from="466818186" to="284766066#0"/>
    <trip id="truck10" type="truck_truck" depart="43.64" departLane="best" from="153090291#4" to="924948801#6"/>
    <trip id="truck11" type="truck_truck" depart="48.00" departLane="best" departSpeed="max" from="-700395777" to="-153090302#3"/>
    <trip id="truck12" type="truck_truck" depart="52.36" departLane="best" from="507132798#1" to="156268179#19"/>
    <trip id="truck13" type="truck_truck" depart="56.73" departLane="best" departSpeed="max" from="700328594#0" to="153617510#3"/>
    <trip id="truck14" type="truck_truck" depart="61.09" departLane="best" from="284365498#6" to="-153088555#4"/>
    <trip id="truck15" type="truck_truck" depart="65.45" departLane="best" from="-284274045#3" to="296391615#0"/>
    <trip id="truck16" type="truck_truck" depart="69.82" departLane="best" from="-153090292#2" to="-284766047#3"/>
    <trip id="truck17" type="truck_truck" depart="74.18" departLane="best" departSpeed="max" from="156275582#0" to="-700337256#0"/>
    <trip id="truck18" type="truck_truck" depart="78.54" departLane="best" from="-284766163" to="829460017"/>
    <trip id="truck19" type="truck_truck" depart="82.91" departLane="best" from="156356436#8" to="284766061#2"/>
    <trip id="truck20" type="truck_truck" depart="87.27" departLane="best" from="156356436#13" to="-700397730#1"/>
    <trip id="truck21" type="truck_truck" depart="91.64" departLane="best" from="153090301#2" to="181557190#4"/>
    <trip id="truck22" type="truck_truck" depart="96.00" departLane="best" departSpeed="max" from="617102488#0" to="296391636#0"/>
    <trip id="truck23" type="truck_truck" depart="100.36" departLane="best" from="-284667666#3" to="-153027614#0"/>
    <trip id="truck24" type="truck_truck" depart="104.73" departLane="best" departSpeed="max" from="-467061052#1" to="-284766132"/>
    <trip id="truck25" type="truck_truck" depart="109.09" departLane="best" departSpeed="max" from="-181557188#1" to="829460024#2"/>
    <trip id="truck26" type="truck_truck" depart="113.45" departLane="best" departSpeed="max" from="700337256#0" to="-466818182#0"/>
    <trip id="truck27" type="truck_truck" depart="117.82" departLane="best" from="156357718#1" to="-826202608#0"/>
    <trip id="truck28" type="truck_truck" depart="122.18" departLane="best" from="-284766136" to="-284766090#2"/>
    <trip id="truck29" type="truck_truck" depart="126.54" departLane="best" from="153090302#1" to="-284766124#2"/>
    <trip id="truck30" type="truck_truck" depart="130.91" departLane="best" departSpeed="max" from="153097479#0" to="700399866"/>
    <trip id="truck31" type="truck_truck" depart="135.27" departLane="best" departSpeed="max" from="-700406947#1" to="-284274024#11"/>
    <trip id="truck32" type="truck_truck" depart="139.64" departLane="best" departSpeed="max" from="949336812" to="153090274#1"/>
    <trip id="truck33" type="truck_truck" depart="144.00" departLane="best" departSpeed="max" from="-153097426" to="156275585#0"/>
    <trip id="truck34" type="truck_truck" depart="148.36" departLane="best" departSpeed="max" from="-153090281#1" to="-700406950#1"/>
    <trip id="truck35" type="truck_truck" depart="152.73" departLane="best" departSpeed="max" from="949336811" to="153090288"/>
    <trip id="truck36" type="truck_truck" depart="157.09" departLane="best" from="924948801#2" to="700335842#0"/>
    <trip id="truck37" type="truck_truck" depart="161.45" departLane="best" from="-151967264#2" to="284766047#5"/>
    <trip id="truck38" type="truck_truck" depart="165.82" departLane="best" from="-284766163" to="-156356436#8"/>
    <trip id="truck40" type="truck_truck" depart="174.54" departLane="best" from="296391645#0" to="153090291#0"/>
    <trip id="truck41" type="truck_truck" depart="178.91" departLane="best" departSpeed="max" from="-152752265#1" to="829457129#0"/>
    <trip id="truck42" type="truck_truck" depart="183.27" departLane="best" from="700383601#1" to="507132798#8"/>
    <trip id="truck44" type="truck_truck" depart="192.00" departLane="best" from="-153090294#3" to="153027614#5"/>
    <trip id="truck45" type="truck_truck" depart="196.36" departLane="best" from="-296391602#3" to="-153207638#2"/>
    <trip id="truck46" type="truck_truck" depart="200.73" departLane="best" departSpeed="max" from="151967274#0" to="153090301#6"/>
    <trip id="truck47" type="truck_truck" depart="205.09" departLane="best" from="-284766136" to="700383610"/>
    <trip id="truck48" type="truck_truck" depart="209.45" departLane="best" departSpeed="max" from="-946207933#3" to="-181557190#0"/>
    <trip id="truck49" type="truck_truck" depart="213.82" departLane="best" departSpeed="max" from="153090292#0" to="284766066#0"/>
    <trip id="truck50" type="truck_truck" depart="218.18" departLane="best" from="181557182#1" to="-466732921#0"/>
    <trip id="truck51" type="truck_truck" depart="222.54" departLane="best" departSpeed="max" from="949336811" to="167557958"/>
    <trip id="truck52" type="truck_truck" depart="226.91" departLane="best" from="-946429346#2" to="153090281#1"/>
    <trip id="truck53" type="truck_truck" depart="231.27" departLane="best" from="-687849225#2" to="155206832"/>
    <trip id="truck54" type="truck_truck" depart="235.63" departLane="best" departSpeed="max" from="-284667666#4" to="-284274024#14"/>
    <trip id="truck55" type="truck_truck" depart="240.00" departLane="best" from="-284667666#3" to="700406947#0"/>
    <trip id="truck56" type="truck_truck" depart="244.36" departLane="best" departSpeed="max" from="700328594#0" to="-153090287#0"/>
    <trip id="truck57" type="truck_truck" depart="248.73" departLane="best" from="-284766047#7" to="181557166"/>
    <trip id="truck58" type="truck_truck" depart="253.09" departLane="best" departSpeed="max" from="-181557190#4" to="-153617507#4"/>
    <trip id="truck59" type="truck_truck" depart="257.45" departLane="best" from="90231649#10-AddedOffRampEdge" to="153207638#2"/>
    <trip id="truck60" type="truck_truck" depart="261.82" departLane="best" from="153090302#3" to="1213517249"/>
    <trip id="truck61" type="truck_truck" depart="266.18" departLane="best" departSpeed="max" from="-946207933#3" to="284365498#1"/>
    <trip id="truck62" type="truck_truck" depart="270.54" departLane="best" departSpeed="max" from="-700406952#1" to="-617102488#1"/>
    <trip id="truck63" type="truck_truck" depart="274.91" departLane="best" departSpeed="max" from="700328594#0" to="284766090#4"/>
    <trip id="truck65" type="truck_truck" depart="283.63" departLane="best" departSpeed="max" from="123131429" to="700335842#0"/>
    <trip id="truck66" type="truck_truck" depart="288.00" departLane="best" from="924948800#7" to="827127374#0"/>
    <trip id="truck67" type="truck_truck" depart="292.36" departLane="best" from="-687849225#6" to="-156275582#1"/>
    <trip id="truck68" type="truck_truck" depart="296.73" departLane="best" departSpeed="max" from="152564756" to="-181557190#0"/>
    <trip id="truck69" type="truck_truck" depart="301.09" departLane="best" departSpeed="max" from="-700406952#1" to="-153090274#0"/>
    <trip id="truck70" type="truck_truck" depart="305.45" departLane="best" departSpeed="max" from="-700395777" to="946207933#3"/>
    <trip id="truck71" type="truck_truck" depart="309.82" departLane="best" from="-284766136" to="296391656#1"/>
    <trip id="truck72" type="truck_truck" depart="314.18" departLane="best" from="90231646#9" to="946429344#1"/>
    <trip id="truck73" type="truck_truck" depart="318.54" departLane="best" departSpeed="max" from="153090301#0" to="284766047#5"/>
    <trip id="truck74" type="truck_truck" depart="322.91" departLane="best" from="-156268179#7" to="-296391643#1"/>
    <trip id="truck75" type="truck_truck" depart="327.27" departLane="best" from="924948800#7" to="153617511#0"/>
    <trip id="truck76" type="truck_truck" depart="331.63" departLane="best" from="153090292#3" to="284766121#2"/>
    <trip id="truck77" type="truck_truck" depart="336.00" departLane="best" from="153088555#0" to="700328594#5"/>
    <trip id="truck78" type="truck_truck" depart="340.36" departLane="best" from="-156275585#0" to="90231649#3"/>
    <trip id="truck79" type="truck_truck" depart="344.72" departLane="best" from="-284766046" to="-153090307#8"/>
    <trip id="truck80" type="truck_truck" depart="349.09" departLane="best" departSpeed="max" from="700395779" to="-284766090#0"/>
    <trip id="truck81" type="truck_truck" depart="353.45" departLane="best" from="-945340954" to="153617524#3"/>
    <trip id="truck82" type="truck_truck" depart="357.82" departLane="best" from="153090277#0" to="829458120#1"/>
    <trip id="truck84" type="truck_truck" depart="366.54" departLane="best" from="181557162" to="-296391653#0"/>
    <trip id="truck85" type="truck_truck" depart="370.91" departLane="best" departSpeed="max" from="-467061052#1" to="284766136"/>
    <trip id="truck86" type="truck_truck" depart="375.27" departLane="best" departSpeed="max" from="-153090287#2" to="148530156#0"/>
    <trip id="truck87" type="truck_truck" depart="379.63" departLane="best" departSpeed="max" from="949336812" to="946429344#2"/>
    <trip id="truck88" type="truck_truck" depart="384.00" departLane="best" departSpeed="max" from="-153090287#2" to="-181557190#0"/>
    <trip id="truck89" type="truck_truck" depart="388.36" departLane="best" from="-284766136" to="829458120#1"/>
    <trip id="truck91" type="truck_truck" depart="397.09" departLane="best" from="507132798#8" to="-284274045#3"/>
    <trip id="truck92" type="truck_truck" depart="401.45" departLane="best" from="156356436#9" to="-148530110#0"/>
    <trip id="truck93" type="truck_truck" depart="405.82" departLane="best" departSpeed="max" from="467061034#0" to="-296391653#0"/>
    <trip id="truck94" type="truck_truck" depart="410.18" departLane="best" from="155206838#2" to="-153090307#0"/>
    <trip id="truck95" type="truck_truck" depart="414.54" departLane="best" from="-153090307#8" to="153090302#7"/>
    <trip id="truck96" type="truck_truck" depart="418.91" departLane="best" from="-296391598#10" to="156268173#3"/>
    <trip id="truck97" type="truck_truck" depart="423.27" departLane="best" departSpeed="max" from="156275582#0" to="-284766127"/>
    <trip id="truck98" type="truck_truck" depart="427.63" departLane="best" from="655760581" to="-153090301#0"/>
    <trip id="truck99" type="truck_truck" depart="432.00" departLane="best" departSpeed="max" from="-946207933#3" to="296391598#11"/>
    <trip id="truck100" type="truck_truck" depart="436.36" departLane="best" departSpeed="max" from="156275582#0" to="-284766124#0"/>
    <trip id="truck101" type="truck_truck" depart="440.72" departLane="best" from="-284766124#0" to="-153090302#3"/>
    <trip id="truck102" type="truck_truck" depart="445.09" departLane="best" departSpeed="max" from="-946207935" to="-148530111#0"/>
    <trip id="truck103" type="truck_truck" depart="449.45" departLane="best" from="707823134#0" to="-153090296#3"/>
    <trip id="truck104" type="truck_truck" depart="453.81" departLane="best" from="148258859#3" to="153617524#2"/>
    <trip id="truck105" type="truck_truck" depart="458.18" departLane="best" from="466818186" to="700399867"/>
    <trip id="truck106" type="truck_truck" depart="462.54" departLane="best" departSpeed="max" from="700406950#0" to="-181557185"/>
    <trip id="truck107" type="truck_truck" depart="466.91" departLane="best" from="-284766090#0" to="-153090302#5"/>
    <trip id="truck108" type="truck_truck" depart="471.27" departLane="best" from="296391648#2" to="700395764"/>
    <trip id="truck109" type="truck_truck" depart="475.63" departLane="best" from="-826591774#3" to="156268179#20"/>
    <trip id="truck110" type="truck_truck" depart="480.00" departLane="best" from="-156268179#7" to="284667666#0"/>
    <trip id="truck111" type="truck_truck" depart="484.36" departLane="best" from="700328594#4" to="937403687"/>
    <trip id="truck112" type="truck_truck" depart="488.72" departLane="best" from="-152752290#4" to="284766090#0"/>
    <trip id="truck113" type="truck_truck" depart="493.09" departLane="best" from="-477694280#1" to="829458120#0"/>
    <trip id="truck114" type="truck_truck" depart="497.45" departLane="best" from="466818182#0" to="700337256#2"/>
    <trip id="truck116" type="truck_truck" depart="506.18" departLane="best" from="296391656#2" to="-153090303#1"/>
    <trip id="truck117" type="truck_truck" depart="510.54" departLane="best" from="700328605#2" to="700335841"/>
    <trip id="truck118" type="truck_truck" depart="514.91" departLane="best" from="284274024#16" to="467061055#0"/>
    <trip id="truck119" type="truck_truck" depart="519.27" departLane="best" from="404807404#1" to="-284274045#3"/>
    <trip id="truck120" type="truck_truck" depart="523.63" departLane="best" departSpeed="max" from="-467061055#4" to="700337256#2"/>
    <trip id="truck121" type="truck_truck" depart="528.00" departLane="best" from="924948800#5" to="-296391598#4"/>
    <trip id="truck123" type="truck_truck" depart="536.72" departLane="best" departSpeed="max" from="946207933#0" to="153090292#4"/>
    <trip id="truck125" type="truck_truck" depart="545.45" departLane="best" from="924948801#0" to="-156356436#16"/>
    <trip id="truck126" type="truck_truck" depart="549.81" departLane="best" from="-153097361" to="123131426"/>
    <trip id="truck127" type="truck_truck" depart="554.18" departLane="best" from="284766090#5" to="-466732921#2"/>
    <trip id="truck128" type="truck_truck" depart="558.54" departLane="best" from="-1305150801#1" to="827111127"/>
    <trip id="truck129" type="truck_truck" depart="562.91" departLane="best" departSpeed="max" from="153090292#0" to="284766047#5"/>
    <trip id="truck130" type="truck_truck" depart="567.27" departLane="best" from="-284766124#2" to="181557166"/>
    <trip id="truck131" type="truck_truck" depart="571.63" departLane="best" from="-700383601#0" to="-153090284#2"/>
    <trip id="truck132" type="truck_truck" depart="576.00" departLane="best" departSpeed="max" from="168897947#0" to="467061055#0"/>
    <trip id="truck133" type="truck_truck" depart="580.36" departLane="best" from="284766068#0" to="-296391653#0"/>
    <trip id="truck134" type="truck_truck" depart="584.72" departLane="best" from="-466818187" to="-946207933#1"/>
    <trip id="truck135" type="truck_truck" depart="589.09" departLane="best" departSpeed="max" from="-700406952#1" to="-296391643#0"/>
    <trip id="truck136" type="truck_truck" depart="593.45" departLane="best" from="-153617524#2" to="-949336811"/>
    <trip id="truck138" type="truck_truck" depart="602.18" departLane="best" departSpeed="max" from="700406951#0" to="156268179#15"/>
    <trip id="truck139" type="truck_truck" depart="606.54" departLane="best" from="156357718#0" to="-151967274#1"/>
    <trip id="truck140" type="truck_truck" depart="610.90" departLane="best" departSpeed="max" from="123131429" to="-181557190#0"/>
    <trip id="truck141" type="truck_truck" depart="615.27" departLane="best" departSpeed="max" from="151967274#0" to="700399867"/>
    <trip id="truck142" type="truck_truck" depart="619.63" departLane="best" from="404807404#2" to="-156275582#3"/>
    <trip id="truck143" type="truck_truck" depart="624.00" departLane="best" from="-181557177#0" to="-284274024#4"/>
    <trip id="truck144" type="truck_truck" depart="628.36" departLane="best" from="-181557177#1" to="-152564756"/>
    <trip id="truck145" type="truck_truck" depart="632.72" departLane="best" from="-687849225#8" to="-153090291#1"/>
    <trip id="truck146" type="truck_truck" depart="637.09" departLane="best" departSpeed="max" from="-937403687" to="156356132"/>
    <trip id="truck147" type="truck_truck" depart="641.45" departLane="best" departSpeed="max" from="153027614#0" to="-284766085"/>
    <trip id="truck148" type="truck_truck" depart="645.81" departLane="best" from="156357718#1" to="-1305150801#1"/>
    <trip id="truck149" type="truck_truck" depart="650.18" departLane="best" from="-153090307#6" to="-949336812"/>
    <trip id="truck150" type="truck_truck" depart="654.54" departLane="best" departSpeed="max" from="-167557941#1" to="90231649#1"/>
    <trip id="truck151" type="truck_truck" depart="658.90" departLane="best" from="153090270#0" to="-153090241"/>
    <trip id="truck152" type="truck_truck" depart="663.27" departLane="best" departSpeed="max" from="-284766086#1" to="700139911"/>
    <trip id="truck153" type="truck_truck" depart="667.63" departLane="best" from="148258859#1" to="466818187"/>
    <trip id="truck154" type="truck_truck" depart="672.00" departLane="best" from="181557183#1" to="946207935"/>
    <trip id="truck155" type="truck_truck" depart="676.36" departLane="best" from="153617510#5" to="897841053#0"/>
    <trip id="truck156" type="truck_truck" depart="680.72" departLane="best" from="284766066#0" to="153090253"/>
    <trip id="truck157" type="truck_truck" depart="685.09" departLane="best" from="507132798#2" to="153090301#3"/>
    <trip id="truck158" type="truck_truck" depart="689.45" departLane="best" departSpeed="max" from="700406950#0" to="284766117#3"/>
    <trip id="truck159" type="truck_truck" depart="693.81" departLane="best" departSpeed="max" from="151967274#0" to="-284766121#0"/>
    <trip id="truck160" type="truck_truck" depart="698.18" departLane="best" departSpeed="max" from="-284766086#1" to="-156356436#3"/>
    <trip id="truck161" type="truck_truck" depart="702.54" departLane="best" from="-296391602#3" to="-153090282#2"/>
    <trip id="truck162" type="truck_truck" depart="706.90" departLane="best" from="153090274#3" to="284766163"/>
    <trip id="truck163" type="truck_truck" depart="711.27" departLane="best" from="-153090291#4" to="296391602#2"/>
    <trip id="truck164" type="truck_truck" depart="715.63" departLane="best" from="296391598#0" to="-466818186"/>
    <trip id="truck165" type="truck_truck" depart="719.99" departLane="best" departSpeed="max" from="-284667666#4" to="-284274024#10"/>
    <trip id="truck166" type="truck_truck" depart="724.36" departLane="best" from="284667666#0" to="-153090280#0"/>
    <trip id="truck167" type="truck_truck" depart="728.72" departLane="best" from="-827111126#4" to="153090295#1"/>
    <trip id="truck169" type="truck_truck" depart="737.45" departLane="best" departSpeed="max" from="-700395777" to="-148258858#0"/>
    <trip id="truck170" type="truck_truck" depart="741.81" departLane="best" departSpeed="max" from="-700335841" to="284766163"/>
    <trip id="truck171" type="truck_truck" depart="746.18" departLane="best" departSpeed="max" from="700139910" to="90231646#4"/>
    <trip id="truck172" type="truck_truck" depart="750.54" departLane="best" from="-945340954" to="284766121#1"/>
    <trip id="truck173" type="truck_truck" depart="754.90" departLane="best" from="153090294#1" to="156268173#1"/>
    <trip id="truck174" type="truck_truck" depart="759.27" departLane="best" from="-946429345" to="-152752290#4"/>
    <trip id="truck176" type="truck_truck" depart="767.99" departLane="best" from="826202608#0" to="-156275582#1"/>
    <trip id="truck177" type="truck_truck" depart="772.36" departLane="best" from="148530111#4" to="-153207638#1"/>
    <trip id="truck178" type="truck_truck" depart="776.72" departLane="best" from="156268175#5" to="-152752290#1"/>
    <trip id="truck179" type="truck_truck" depart="781.09" departLane="best" from="-152752308#1" to="156357718#0"/>
    <trip id="truck180" type="truck_truck" depart="785.45" departLane="best" from="-155207033#0" to="151967264#3"/>
    <trip id="truck181" type="truck_truck" depart="789.81" departLane="best" from="-153090248" to="-700397730#1"/>
    <trip id="truck182" type="truck_truck" depart="794.18" departLane="best" departSpeed="max" from="-181557188#1" to="-467061052#0"/>
    <trip id="truck183" type="truck_truck" depart="798.54" departLane="best" from="-296391598#8" to="-700397730#1"/>
    <trip id="truck184" type="truck_truck" depart="802.90" departLane="best" from="284766140#0" to="507132798#9"/>
    <trip id="truck185" type="truck_truck" depart="807.27" departLane="best" from="-284766090#4" to="-153090292#3"/>
    <trip id="truck186" type="truck_truck" depart="811.63" departLane="best" departSpeed="max" from="-152752265#1" to="153090294#1"/>
    <trip id="truck187" type="truck_truck" depart="815.99" departLane="best" departSpeed="max" from="949336812" to="-700206643"/>
    <trip id="truck188" type="truck_truck" depart="820.36" departLane="best" from="156356436#3" to="296391648#2"/>
    <trip id="truck189" type="truck_truck" depart="824.72" departLane="best" from="156356436#5" to="289866367"/>
    <trip id="truck190" type="truck_truck" depart="829.09" departLane="best" departSpeed="max" from="-152752265#1" to="-155207363#1"/>
    <trip id="truck191" type="truck_truck" depart="833.45" departLane="best" departSpeed="max" from="153090303#0" to="-284274024#1"/>
    <trip id="truck192" type="truck_truck" depart="837.81" departLane="best" from="-284274024#9" to="-296391599#1"/>
    <trip id="truck193" type="truck_truck" depart="842.18" departLane="best" from="156356436#3" to="156268175#10"/>
    <trip id="truck194" type="truck_truck" depart="846.54" departLane="best" departSpeed="max" from="284766132" to="-153090307#0"/>
    <trip id="truck195" type="truck_truck" depart="850.90" departLane="best" departSpeed="max" from="467061052#0" to="924948800#1"/>
    <trip id="truck196" type="truck_truck" depart="855.27" departLane="best" from="-153090307#9" to="-152752290#0"/>
    <trip id="truck197" type="truck_truck" depart="859.63" departLane="best" from="284766054#3" to="-153090291#5"/>
    <trip id="truck198" type="truck_truck" depart="863.99" departLane="best" from="-153090305#0" to="296391615#1"/>
    <trip id="truck199" type="truck_truck" depart="868.36" departLane="best" from="-826591774#0" to="156268043#0"/>
    <trip id="truck200" type="truck_truck" depart="872.72" departLane="best" from="-153617510#1" to="946207933#3"/>
    <trip id="truck201" type="truck_truck" depart="877.08" departLane="best" from="156356436#7" to="-617102488#1"/>
    <trip id="truck202" type="truck_truck" depart="881.45" departLane="best" from="-687849225#8" to="477694276#0"/>
    <trip id="truck203" type="truck_truck" depart="885.81" departLane="best" from="-153090307#5" to="90231649#3"/>
    <trip id="truck204" type="truck_truck" depart="890.18" departLane="best" departSpeed="max" from="156275582#0" to="507132798#3"/>
    <trip id="truck205" type="truck_truck" depart="894.54" departLane="best" from="284766034#0" to="123131426"/>
    <trip id="truck206" type="truck_truck" depart="898.90" departLane="best" from="284766117#4" to="924948801#5"/>
    <trip id="truck207" type="truck_truck" depart="903.27" departLane="best" departSpeed="max" from="153090292#0" to="153027614#5"/>
    <trip id="truck208" type="truck_truck" depart="907.63" departLane="best" from="-946429345" to="284766068#2"/>
    <trip id="truck210" type="truck_truck" depart="916.36" departLane="best" from="507132798#3" to="-153090294#3"/>
    <trip id="truck211" type="truck_truck" depart="920.72" departLane="best" from="700383611#0" to="-284766085"/>
    <trip id="truck212" type="truck_truck" depart="925.08" departLane="best" departSpeed="max" from="148530111#0" to="156268175#6"/>
    <trip id="truck213" type="truck_truck" depart="929.45" departLane="best" departSpeed="max" from="-700395777" to="-152752290#4"/>
    <trip id="truck214" type="truck_truck" depart="933.81" departLane="best" departSpeed="max" from="700139910" to="-156356436#4"/>
    <trip id="truck215" type="truck_truck" depart="938.18" departLane="best" from="181557190#1" to="466818184#0"/>
    <trip id="truck217" type="truck_truck" depart="946.90" departLane="best" from="284365498#0" to="-296391598#10"/>
    <trip id="truck218" type="truck_truck" depart="951.27" departLane="best" from="151966805" to="893194275"/>
    <trip id="truck219" type="truck_truck" depart="955.63" departLane="best" from="-153090294#3" to="284766047#5"/>
    <trip id="truck221" type="truck_truck" depart="964.36" departLane="best" from="284274024#1" to="167557941#0"/>
    <trip id="truck222" type="truck_truck" depart="968.72" departLane="best" from="-152752298" to="466732921#0"/>
    <trip id="truck223" type="truck_truck" depart="973.08" departLane="best" from="-153090301#5" to="-284274024#15"/>
    <trip id="truck224" type="truck_truck" depart="977.45" departLane="best" from="284274024#11" to="-296391658"/>
    <trip id="truck225" type="truck_truck" depart="981.81" departLane="best" from="-153090287#0" to="-949336812"/>
    <trip id="truck226" type="truck_truck" depart="986.17" departLane="best" departSpeed="max" from="284766129" to="467061055#0"/>
    <trip id="truck227" type="truck_truck" depart="990.54" departLane="best" from="284365498#2" to="-284766132"/>
    <trip id="truck228" type="truck_truck" depart="994.90" departLane="best" from="-284766090#3" to="-153090307#9"/>
    <trip id="truck229" type="truck_truck" depart="999.27" departLane="best" from="-181557158#0" to="-153090307#8"/>
    <trip id="truck230" type="truck_truck" depart="1003.63" departLane="best" from="153090291#4" to="-296391598#2"/>
    <trip id="truck231" type="truck_truck" depart="1007.99" departLane="best" from="-168380412#1" to="181557190#3"/>
    <trip id="truck232" type="truck_truck" depart="1012.36" departLane="best" departSpeed="max" from="152564756" to="284766054#2"/>
    <trip id="truck233" type="truck_truck" depart="1016.72" departLane="best" from="945340954" to="153090287#1"/>
    <trip id="truck234" type="truck_truck" depart="1021.08" departLane="best" from="-296391602#4" to="-153090302#0"/>
    <trip id="truck235" type="truck_truck" depart="1025.45" departLane="best" departSpeed="max" from="-167557958" to="151966805"/>
    <trip id="truck236" type="truck_truck" depart="1029.81" departLane="best" from="153090291#1" to="-284766140#1"/>
    <trip id="truck237" type="truck_truck" depart="1034.17" departLane="best" from="284274024#3" to="-153097505#2"/>
    <trip id="truck238" type="truck_truck" depart="1038.54" departLane="best" from="700328605#3" to="153617507#2"/>
    <trip id="truck239" type="truck_truck" depart="1042.90" departLane="best" from="148530156#0" to="128805958#0"/>
    <trip id="truck240" type="truck_truck" depart="1047.27" departLane="best" from="-168380412#0" to="-153090249"/>
    <trip id="truck241" type="truck_truck" depart="1051.63" departLane="best" from="831988116" to="152752290#4"/>
    <trip id="truck242" type="truck_truck" depart="1055.99" departLane="best" departSpeed="max" from="467061052#0" to="-829457129#0"/>
    <trip id="truck243" type="truck_truck" depart="1060.36" departLane="best" from="153090302#5" to="-296391656#0"/>
    <trip id="truck244" type="truck_truck" depart="1064.72" departLane="best" departSpeed="max" from="949336811" to="-153090307#5"/>
    <trip id="truck245" type="truck_truck" depart="1069.08" departLane="best" departSpeed="max" from="349682060" to="-284274024#6"/>