<?xml version="1.0" encoding="UTF-8"?>

<!-- generated on 2024-11-19 00:17:38.889054 by osmWebWizard.py v1_21_0+0000-d7b3b481c43
<configuration>
    <net-file value="C:\Users\Estiven Angel\Sumo\2024-11-19-00-17-31\osm.net.xml.gz"/>
    <output-trip-file value="C:\Users\Estiven Angel\Sumo\2024-11-19-00-17-31\osm.passenger.trips.xml"/>
    <route-file value="C:\Users\Estiven Angel\Sumo\2024-11-19-00-17-31\osm.passenger.rou.xml"/>
    <prefix value="veh"/>
    <trip-attributes value="departLane=&quot;best&quot;"/>
    <fringe-start-attributes value="departSpeed=&quot;max&quot;"/>
    <vehicle-class value="passenger"/>
    <lanes value="True"/>
    <fringe-factor value="5"/>
    <allow-fringe.min-length value="1000.0"/>
    <via-edge-types value="highway.motorway,highway.motorway_link,highway.trunk_link,highway.primary_link,highway.secondary_link,highway.tertiary_link"/>
    <min-distance value="300.0"/>
    <min-distance.fringe value="10.0"/>
    <remove-loops value="True"/>
    <validate value="True"/>
    <insertion-density value="12.0"/>
</configuration>
-->

<!-- generated on 2024-11-19 00:17:38 by Eclipse SUMO duarouter Version 1.21.0
<duarouterConfiguration xmlns:xsi="http://www.w3.org/2001/XMLSchema-instance" xsi:noNamespaceSchemaLocation="http://sumo.dlr.de/xsd/duarouterConfiguration.xsd">

    <input>
        <net-file value="C:\Users\Estiven Angel\Sumo\2024-11-19-00-17-31\osm.net.xml.gz"/>
        <route-files value="C:\Users\Estiven Angel\Sumo\2024-11-19-00-17-31\osm.passenger.trips.xml"/>
    </input>

    <output>
        <output-file value="C:\Users\Estiven Angel\Sumo\2024-11-19-00-17-31\osm.passenger.trips.xml.tmp"/>
        <alternatives-output value="NUL"/>
        <write-trips value="true"/>
    </output>

    <processing>
        <remove-loops value="true"/>
    </processing>

    <time>
        <begin value="0.0"/>
        <end value="3600.0"/>
    </time>

    <report>
        <no-warnings value="true"/>
        <ignore-errors value="true"/>
        <no-step-log value="true"/>
    </report>

</duarouterConfiguration>
-->

<routes xmlns:xsi="http://www.w3.org/2001/XMLSchema-instance" xsi:noNamespaceSchemaLocation="http://sumo.dlr.de/xsd/routes_file.xsd">
    <vType id="veh_passenger" vClass="passenger"/>
    <trip id="veh0" type="veh_passenger" depart="0.00" departLane="best" from="284365498#5" to="152752292#1"/>
    <trip id="veh1" type="veh_passenger" depart="2.91" departLane="best" departSpeed="max" from="-467061053" to="-284766117#6"/>
    <trip id="veh3" type="veh_passenger" depart="8.73" departLane="best" from="829460024#1" to="-153090302#5"/>
    <trip id="veh4" type="veh_passenger" depart="11.64" departLane="best" from="151967274#1" to="-153027614#1"/>
    <trip id="veh5" type="veh_passenger" depart="14.55" departLane="best" from="-284766090#0" to="153097426"/>
    <trip id="veh6" type="veh_passenger" depart="17.45" departLane="best" departSpeed="max" from="-153027614#5" to="284274024#7"/>
    <trip id="veh7" type="veh_passenger" depart="20.36" departLane="best" from="-284766090#4" to="-156356436#16"/>
    <trip id="veh8" type="veh_passenger" depart="23.27" departLane="best" from="700328605#2" to="-148530110#0"/>
    <trip id="veh9" type="veh_passenger" depart="26.18" departLane="best" from="700328604#2" to="284766117#10"/>
    <trip id="veh10" type="veh_passenger" depart="29.09" departLane="best" departSpeed="max" from="-700399867" to="-156356436#11"/>
    <trip id="veh11" type="veh_passenger" depart="32.00" departLane="best" from="924948800#3" to="-815481759"/>
    <trip id="veh12" type="veh_passenger" depart="34.91" departLane="best" departSpeed="max" from="-153097426" to="-153090307#0"/>
    <trip id="veh13" type="veh_passenger" depart="37.82" departLane="best" from="707823134#8-AddedOnRampEdge" to="168380363#1"/>
    <trip id="veh14" type="veh_passenger" depart="40.73" departLane="best" from="700328604#2" to="296391645#0"/>
    <trip id="veh15" type="veh_passenger" depart="43.64" departLane="best" from="155207033#0" to="924948801#5"/>
    <trip id="veh16" type="veh_passenger" depart="46.55" departLane="best" from="1083870239" to="156268175#5"/>
    <trip id="veh17" type="veh_passenger" depart="49.45" departLane="best" departSpeed="max" from="700395779" to="181557166"/>
    <trip id="veh18" type="veh_passenger" depart="52.36" departLane="best" departSpeed="max" from="826565806" to="156268179#4"/>
    <trip id="veh19" type="veh_passenger" depart="55.27" departLane="best" from="-296391648#0" to="-153090266#0"/>
    <trip id="veh20" type="veh_passenger" depart="58.18" departLane="best" from="-284766121#1" to="467061055#3"/>
    <trip id="veh21" type="veh_passenger" depart="61.09" departLane="best" from="-153090302#0" to="-284766129"/>
    <trip id="veh22" type="veh_passenger" depart="64.00" departLane="best" from="-153617510#1" to="-466818186"/>
    <trip id="veh23" type="veh_passenger" depart="66.91" departLane="best" from="284274024#8" to="-949336811"/>
    <trip id="veh24" type="veh_passenger" depart="69.82" departLane="best" from="-946429342#0" to="-284766061#2"/>
    <trip id="veh26" type="veh_passenger" depart="75.64" departLane="best" from="284766054#2" to="168380422#1"/>
    <trip id="veh27" type="veh_passenger" depart="78.54" departLane="best" from="-181557158#0" to="296391643#1"/>
    <trip id="veh28" type="veh_passenger" depart="81.45" departLane="best" from="-168380363#2" to="123131426"/>
    <trip id="veh29" type="veh_passenger" depart="84.36" departLane="best" from="946429344#0" to="25098040#1"/>
    <trip id="veh30" type="veh_passenger" depart="87.27" departLane="best" from="707823134#4-AddedOffRampEdge" to="507132798#3"/>
    <trip id="veh31" type="veh_passenger" depart="90.18" departLane="best" from="-284766124#0" to="-153027638"/>
    <trip id="veh32" type="veh_passenger" depart="93.09" departLane="best" from="-700383601#2" to="-404807404#0"/>
    <trip id="veh33" type="veh_passenger" depart="96.00" departLane="best" from="-284766055" to="90231649#10-AddedOnRampEdge"/>
    <trip id="veh34" type="veh_passenger" depart="98.91" departLane="best" departSpeed="max" from="826585930" to="-700337256#0"/>
    <trip id="veh35" type="veh_passenger" depart="101.82" departLane="best" from="284766068#2" to="148258858#0"/>
    <trip id="veh36" type="veh_passenger" depart="104.73" departLane="best" departSpeed="max" from="831988117#0" to="153090276#0"/>
    <trip id="veh37" type="veh_passenger" depart="107.64" departLane="best" from="-466818184#0" to="-296391599#0"/>
    <trip id="veh38" type="veh_passenger" depart="110.54" departLane="best" from="507132798#4" to="-296391653#0"/>
    <trip id="veh39" type="veh_passenger" depart="113.45" departLane="best" from="-156275585#0" to="829460017"/>
    <trip id="veh40" type="veh_passenger" depart="116.36" departLane="best" from="-1305150801#1" to="-284766117#1"/>
    <trip id="veh41" type="veh_passenger" depart="119.27" departLane="best" departSpeed="max" from="949336812" to="153207638#2"/>
    <trip id="veh42" type="veh_passenger" depart="122.18" departLane="best" departSpeed="max" from="-153097426" to="-153090266#0"/>
    <trip id="veh43" type="veh_passenger" depart="125.09" departLane="best" from="-153617524#8" to="181557188#0"/>
    <trip id="veh44" type="veh_passenger" depart="128.00" departLane="best" from="700328594#1" to="151967601#2"/>
    <trip id="veh45" type="veh_passenger" depart="130.91" departLane="best" from="-153090291#2" to="123131426-AddedOnRampEdge"/>
    <trip id="veh46" type="veh_passenger" depart="133.82" departLane="best" departSpeed="max" from="949336811" to="155207033#3"/>
    <trip id="veh48" type="veh_passenger" depart="139.64" departLane="best" departSpeed="max" from="-151967264#3" to="296391602#1"/>
    <trip id="veh49" type="veh_passenger" depart="142.54" departLane="best" from="284766140#0" to="156268173#1"/>
    <trip id="veh51" type="veh_passenger" depart="148.36" departLane="best" from="155206838#0" to="153027614#5"/>
    <trip id="veh52" type="veh_passenger" depart="151.27" departLane="best" departSpeed="max" from="153090241" to="924948800#1"/>
    <trip id="veh53" type="veh_passenger" depart="154.18" departLane="best" departSpeed="max" from="826585930" to="-296391653#0"/>
    <trip id="veh54" type="veh_passenger" depart="157.09" departLane="best" departSpeed="max" from="153090303#0" to="181557177#1"/>
    <trip id="veh55" type="veh_passenger" depart="160.00" departLane="best" departSpeed="max" from="831988117#0" to="826585153#1"/>
    <trip id="veh56" type="veh_passenger" depart="162.91" departLane="best" from="-700328594#2" to="25098040#1"/>
    <trip id="veh58" type="veh_passenger" depart="168.73" departLane="best" from="507132798#6" to="156268173#3"/>
    <trip id="veh59" type="veh_passenger" depart="171.64" departLane="best" from="687849225#1" to="155207033#3"/>
    <trip id="veh60" type="veh_passenger" depart="174.54" departLane="best" from="-1014442467" to="-700395779"/>
    <trip id="veh61" type="veh_passenger" depart="177.45" departLane="best" from="-152752290#2" to="898343283"/>
    <trip id="veh62" type="veh_passenger" depart="180.36" departLane="best" departSpeed="max" from="826585930" to="700383611#2"/>
    <trip id="veh63" type="veh_passenger" depart="183.27" departLane="best" from="-700337256#2" to="-153090284#0"/>
    <trip id="veh64" type="veh_passenger" depart="186.18" departLane="best" departSpeed="max" from="826585930" to="90231649#3-AddedOffRampEdge"/>
    <trip id="veh65" type="veh_passenger" depart="189.09" departLane="best" from="-153090294#0" to="467061054"/>
    <trip id="veh66" type="veh_passenger" depart="192.00" departLane="best" from="507132798#8" to="-155207363#0"/>
    <trip id="veh67" type="veh_passenger" depart="194.91" departLane="best" from="153090291#2" to="156268175#4"/>
    <trip id="veh68" type="veh_passenger" depart="197.82" departLane="best" from="-466818184#0" to="826580787#1"/>
    <trip id="veh69" type="veh_passenger" depart="200.73" departLane="best" from="151967274#3" to="-284766085"/>
    <trip id="veh70" type="veh_passenger" depart="203.63" departLane="best" from="155207363#1" to="296391648#0"/>
    <trip id="veh71" type="veh_passenger" depart="206.54" departLane="best" from="-284667666#3" to="-700328594#6"/>
    <trip id="veh72" type="veh_passenger" depart="209.45" departLane="best" departSpeed="max" from="949336811" to="25098040#1"/>
    <trip id="veh73" type="veh_passenger" depart="212.36" departLane="best" from="-152752298" to="153617511#2"/>
    <trip id="veh74" type="veh_passenger" depart="215.27" departLane="best" from="-156268179#12" to="-284766121#0"/>
    <trip id="veh75" type="veh_passenger" depart="218.18" departLane="best" departSpeed="max" from="-700399866" to="-156356436#15"/>
    <trip id="veh76" type="veh_passenger" depart="221.09" departLane="best" from="-153090294#2" to="181557190#4"/>
    <trip id="veh77" type="veh_passenger" depart="224.00" departLane="best" from="-284766124#0" to="829460024#2"/>
    <trip id="veh78" type="veh_passenger" depart="226.91" departLane="best" departSpeed="max" from="826565806" to="-153090292#7"/>
    <trip id="veh79" type="veh_passenger" depart="229.82" departLane="best" from="-296391598#11" to="284667666#4"/>
    <trip id="veh80" type="veh_passenger" depart="232.73" departLane="best" from="-284766068#2" to="156268179#8"/>
    <trip id="veh81" type="veh_passenger" depart="235.63" departLane="best" from="90231646#7" to="156268179#20"/>
    <trip id="veh82" type="veh_passenger" depart="238.54" departLane="best" from="153090287#1" to="507132798#9"/>
    <trip id="veh83" type="veh_passenger" depart="241.45" departLane="best" from="700328604#3" to="181557190#3"/>
    <trip id="veh84" type="veh_passenger" depart="244.36" departLane="best" from="-153207638#3" to="152752292#1"/>
    <trip id="veh85" type="veh_passenger" depart="247.27" departLane="best" from="151967274#3" to="-153090282#2"/>
    <trip id="veh86" type="veh_passenger" depart="250.18" departLane="best" from="466732921#1" to="284766035#0"/>
    <trip id="veh87" type="veh_passenger" depart="253.09" departLane="best" departSpeed="max" from="946207933#0" to="-153090307#3"/>
    <trip id="veh89" type="veh_passenger" depart="258.91" departLane="best" departSpeed="max" from="826565806" to="296391602#2"/>
    <trip id="veh90" type="veh_passenger" depart="261.82" departLane="best" departSpeed="max" from="-181557190#4" to="153088555#5"/>
    <trip id="veh91" type="veh_passenger" depart="264.73" departLane="best" from="151967274#1" to="-466818187"/>
    <trip id="veh92" type="veh_passenger" depart="267.63" departLane="best" from="-296391636#1" to="834766781#0"/>
    <trip id="veh93" type="veh_passenger" depart="270.54" departLane="best" from="153027614#2" to="707823134#4"/>
    <trip id="veh94" type="veh_passenger" depart="273.45" departLane="best" from="156268175#0" to="-153090274#2"/>
    <trip id="veh95" type="veh_passenger" depart="276.36" departLane="best" departSpeed="max" from="949336812" to="700395764"/>
    <trip id="veh96" type="veh_passenger" depart="279.27" departLane="best" from="924948801#2" to="893194275"/>
    <trip id="veh97" type="veh_passenger" depart="282.18" departLane="best" departSpeed="max" from="815481759" to="-167557948"/>
    <trip id="veh98" type="veh_passenger" depart="285.09" departLane="best" from="153090294#3" to="-284766085"/>
    <trip id="veh99" type="veh_passenger" depart="288.00" departLane="best" from="148258859#0" to="-153090284#1"/>
    <trip id="veh100" type="veh_passenger" depart="290.91" departLane="best" from="1083870239" to="946207933#3"/>
    <trip id="veh101" type="veh_passenger" depart="293.82" departLane="best" from="-466818184#0" to="507132798#8"/>
    <trip id="veh102" type="veh_passenger" depart="296.73" departLane="best" from="-153090248" to="151967601#3"/>
    <trip id="veh103" type="veh_passenger" depart="299.63" departLane="best" from="284766066#0" to="946429344#0"/>
    <trip id="veh104" type="veh_passenger" depart="302.54" departLane="best" from="156268175#2" to="296391598#9"/>
    <trip id="veh105" type="veh_passenger" depart="305.45" departLane="best" from="156357718#1" to="-655760581"/>
    <trip id="veh106" type="veh_passenger" depart="308.36" departLane="best" from="924948801#2" to="156268179#8"/>
    <trip id="veh107" type="veh_passenger" depart="311.27" departLane="best" from="156268173#0" to="466818184#2"/>
    <trip id="veh108" type="veh_passenger" depart="314.18" departLane="best" from="153090303#1" to="700399867"/>
    <trip id="veh109" type="veh_passenger" depart="317.09" departLane="best" departSpeed="max" from="-167557941#1" to="924948800#6"/>
    <trip id="veh110" type="veh_passenger" depart="320.00" departLane="best" from="-153090302#1" to="181557188#0"/>
    <trip id="veh111" type="veh_passenger" depart="322.91" departLane="best" from="156356436#6" to="284766047#3"/>
    <trip id="veh113" type="veh_passenger" depart="328.72" departLane="best" from="829460024#1" to="-296391599#0"/>
    <trip id="veh114" type="veh_passenger" depart="331.63" departLane="best" from="156356436#6" to="181557166"/>
    <trip id="veh116" type="veh_passenger" depart="337.45" departLane="best" from="153617507#4" to="90231646#7-AddedOnRampEdge"/>
    <trip id="veh117" type="veh_passenger" depart="340.36" departLane="best" departSpeed="max" from="-284667666#4" to="296391598#6"/>
    <trip id="veh118" type="veh_passenger" depart="343.27" departLane="best" from="-296391598#13" to="148258858#0"/>
    <trip id="veh119" type="veh_passenger" depart="346.18" departLane="best" from="-284766121#1" to="-700139910"/>
    <trip id="veh120" type="veh_passenger" depart="349.09" departLane="best" from="-700383602" to="466818188"/>
    <trip id="veh121" type="veh_passenger" depart="352.00" departLane="best" from="-153090295#1" to="153090276#0"/>
    <trip id="veh122" type="veh_passenger" depart="354.91" departLane="best" departSpeed="max" from="949336812" to="946429344#1"/>
    <trip id="veh123" type="veh_passenger" depart="357.82" departLane="best" from="-153090296#0" to="-284766085"/>
    <trip id="veh124" type="veh_passenger" depart="360.72" departLane="best" from="-466818184#0" to="90231646#7"/>
    <trip id="veh125" type="veh_passenger" depart="363.63" departLane="best" from="-946242000" to="-156356436#15"/>
    <trip id="veh126" type="veh_passenger" depart="366.54" departLane="best" departSpeed="max" from="700406950#0" to="284766121#2"/>
    <trip id="veh127" type="veh_passenger" depart="369.45" departLane="best" from="181557165" to="946207933#3"/>
    <trip id="veh128" type="veh_passenger" depart="372.36" departLane="best" from="284766061#2" to="-148530110#2"/>
    <trip id="veh129" type="veh_passenger" depart="375.27" departLane="best" from="700383601#1" to="-687849225#8"/>
    <trip id="veh130" type="veh_passenger" depart="378.18" departLane="best" from="284766117#1" to="90231649#10"/>
    <trip id="veh131" type="veh_passenger" depart="381.09" departLane="best" from="-153617524#3" to="156268175#5"/>
    <trip id="veh132" type="veh_passenger" depart="384.00" departLane="best" departSpeed="max" from="-467061052#1" to="168380412#0"/>
    <trip id="veh133" type="veh_passenger" depart="386.91" departLane="best" departSpeed="max" from="349682060" to="-284766047#2"/>
    <trip id="veh134" type="veh_passenger" depart="389.82" departLane="best" from="284274024#5" to="296391653#1"/>
    <trip id="veh135" type="veh_passenger" depart="392.72" departLane="best" from="153090296#1" to="829460024#2"/>
    <trip id="veh136" type="veh_passenger" depart="395.63" departLane="best" from="707823134#8-AddedOnRampEdge" to="-153090303#3"/>
    <trip id="veh137" type="veh_passenger" depart="398.54" departLane="best" from="151967274#3" to="-466818184#2"/>
    <trip id="veh138" type="veh_passenger" depart="401.45" departLane="best" from="148530110#0" to="477694280#2"/>
    <trip id="veh139" type="veh_passenger" depart="404.36" departLane="best" departSpeed="max" from="467059957" to="156268175#5"/>
    <trip id="veh140" type="veh_passenger" depart="407.27" departLane="best" from="151967601#1-AddedOffRampEdge" to="-148530111#2"/>
    <trip id="veh141" type="veh_passenger" depart="410.18" departLane="best" from="-153090301#1" to="827127374#1"/>
    <trip id="veh143" type="veh_passenger" depart="416.00" departLane="best" departSpeed="max" from="700406950#0" to="156275585#0"/>
    <trip id="veh144" type="veh_passenger" depart="418.91" departLane="best" from="-156356436#16" to="155207307#1"/>
    <trip id="veh145" type="veh_passenger" depart="421.82" departLane="best" departSpeed="max" from="-700344864" to="829460024#1"/>
    <trip id="veh148" type="veh_passenger" depart="430.54" departLane="best" from="-296391636#0" to="-153097479#1"/>
    <trip id="veh149" type="veh_passenger" depart="433.45" departLane="best" from="-687849225#4" to="827127374#2"/>
    <trip id="veh150" type="veh_passenger" depart="436.36" departLane="best" from="148258859#2-AddedOnRampEdge" to="181557177#1"/>
    <trip id="veh151" type="veh_passenger" depart="439.27" departLane="best" from="-156357718#0" to="898343283"/>
    <trip id="veh152" type="veh_passenger" depart="442.18" departLane="best" departSpeed="max" from="826565806" to="924948801#6"/>
    <trip id="veh153" type="veh_passenger" depart="445.09" departLane="best" from="700328605#2" to="827127374#0"/>
    <trip id="veh154" type="veh_passenger" depart="448.00" departLane="best" departSpeed="max" from="-153027614#5" to="360918034#0"/>
    <trip id="veh155" type="veh_passenger" depart="450.91" departLane="best" from="-700397728#0" to="90231646#10"/>
    <trip id="veh156" type="veh_passenger" depart="453.81" departLane="best" departSpeed="max" from="700328604#0" to="707823134#8-AddedOnRampEdge"/>
    <trip id="veh157" type="veh_passenger" depart="456.72" departLane="best" from="826585153#1" to="700406952#0"/>
    <trip id="veh158" type="veh_passenger" depart="459.63" departLane="best" from="-284766117#1" to="700335841"/>
    <trip id="veh159" type="veh_passenger" depart="462.54" departLane="best" from="153090266#1" to="-700206643"/>
    <trip id="veh160" type="veh_passenger" depart="465.45" departLane="best" departSpeed="max" from="700328604#0" to="-284766121#1"/>
    <trip id="veh161" type="veh_passenger" depart="468.36" departLane="best" from="-153027614#2" to="-284274024#13"/>
    <trip id="veh162" type="veh_passenger" depart="471.27" departLane="best" departSpeed="max" from="-700395777" to="707823134#8-AddedOnRampEdge"/>
    <trip id="veh163" type="veh_passenger" depart="474.18" departLane="best" from="945340955" to="924948801#8"/>
    <trip id="veh164" type="veh_passenger" depart="477.09" departLane="best" from="90231649#1" to="-153617511#0"/>
    <trip id="veh165" type="veh_passenger" depart="480.00" departLane="best" from="924948800#6" to="-296391656#2"/>
    <trip id="veh166" type="veh_passenger" depart="482.91" departLane="best" from="-153617524#6" to="153027614#4"/>
    <trip id="veh167" type="veh_passenger" depart="485.81" departLane="best" from="466732921#0" to="-700337256#0"/>
    <trip id="veh168" type="veh_passenger" depart="488.72" departLane="best" from="168897947#1" to="153617507#1"/>
    <trip id="veh169" type="veh_passenger" depart="491.63" departLane="best" departSpeed="max" from="123131429" to="156268179#4"/>
    <trip id="veh170" type="veh_passenger" depart="494.54" departLane="best" from="-1305150801#1" to="893194275"/>
    <trip id="veh171" type="veh_passenger" depart="497.45" departLane="best" from="155207307#1" to="-296391599#1"/>
    <trip id="veh172" type="veh_passenger" depart="500.36" departLane="best" departSpeed="max" from="467061034#0" to="284667666#4"/>
    <trip id="veh173" type="veh_passenger" depart="503.27" departLane="best" departSpeed="max" from="-946207933#3" to="-153090292#6"/>
    <trip id="veh174" type="veh_passenger" depart="506.18" departLane="best" from="-284766117#10" to="-700406950#1"/>
    <trip id="veh175" type="veh_passenger" depart="509.09" departLane="best" departSpeed="max" from="-700344865" to="700399866"/>
    <trip id="veh176" type="veh_passenger" depart="512.00" departLane="best" departSpeed="max" from="349682060" to="-700139910"/>
    <trip id="veh177" type="veh_passenger" depart="514.91" departLane="best" departSpeed="max" from="-700344864" to="148530111#6"/>
    <trip id="veh178" type="veh_passenger" depart="517.81" departLane="best" from="148258859#0" to="-617102488#1"/>
    <trip id="veh179" type="veh_passenger" depart="520.72" departLane="best" from="-156268179#17" to="151967601#1-AddedOffRampEdge"/>
    <trip id="veh181" type="veh_passenger" depart="526.54" departLane="best" from="-700328602" to="156268175#2"/>
    <trip id="veh182" type="veh_passenger" depart="529.45" departLane="best" from="-1014442467" to="467061055#0"/>
    <trip id="veh184" type="veh_passenger" depart="535.27" departLane="best" from="-296391602#2" to="153090281#1"/>
    <trip id="veh185" type="veh_passenger" depart="538.18" departLane="best" departSpeed="max" from="153027614#0" to="-284766085"/>
    <trip id="veh186" type="veh_passenger" depart="541.09" departLane="best" from="153090288" to="829460024#1"/>
    <trip id="veh187" type="veh_passenger" depart="544.00" departLane="best" departSpeed="max" from="700328604#0" to="-168380422#0"/>
    <trip id="veh188" type="veh_passenger" depart="546.91" departLane="best" from="-153090303#4" to="153617510#5"/>
    <trip id="veh189" type="veh_passenger" depart="549.81" departLane="best" from="284274024#2" to="-700406951#1"/>
    <trip id="veh190" type="veh_passenger" depart="552.72" departLane="best" from="167557948" to="466818188"/>
    <trip id="veh191" type="veh_passenger" depart="555.63" departLane="best" from="284274024#5" to="-152752290#4"/>
    <trip id="veh192" type="veh_passenger" depart="558.54" departLane="best" from="-296391602#1" to="153090291#1"/>
    <trip id="veh193" type="veh_passenger" depart="561.45" departLane="best" departSpeed="max" from="815481759" to="-153090294#2"/>
    <trip id="veh194" type="veh_passenger" depart="564.36" departLane="best" from="148530111#3" to="181557190#4"/>
    <trip id="veh195" type="veh_passenger" depart="567.27" departLane="best" from="284274024#14" to="284766117#0"/>
    <trip id="veh196" type="veh_passenger" depart="570.18" departLane="best" from="153090301#3" to="-296391598#6"/>
    <trip id="veh197" type="veh_passenger" depart="573.09" departLane="best" departSpeed="max" from="284766085" to="-148258858#0"/>
    <trip id="veh198" type="veh_passenger" depart="576.00" departLane="best" from="-153617524#3" to="152752265#0"/>
    <trip id="veh199" type="veh_passenger" depart="578.90" departLane="best" from="153097505#2" to="-153090274#2"/>
    <trip id="veh200" type="veh_passenger" depart="581.81" departLane="best" from="-296391636#0" to="700399866"/>
    <trip id="veh201" type="veh_passenger" depart="584.72" departLane="best" from="-284766117#7" to="946207933#3"/>
    <trip id="veh202" type="veh_passenger" depart="587.63" departLane="best" from="156356436#7" to="924948800#0"/>
    <trip id="veh203" type="veh_passenger" depart="590.54" departLane="best" from="829460024#1" to="-945340953"/>
    <trip id="veh204" type="veh_passenger" depart="593.45" departLane="best" departSpeed="max" from="349682060" to="153097426"/>
    <trip id="veh205" type="veh_passenger" depart="596.36" departLane="best" departSpeed="max" from="700395779" to="156268175#10"/>
    <trip id="veh207" type="veh_passenger" depart="602.18" departLane="best" from="153090291#1" to="-296391648#1"/>
    <trip id="veh208" type="veh_passenger" depart="605.09" departLane="best" from="-296391615#1" to="25098040#1"/>
    <trip id="veh209" type="veh_passenger" depart="608.00" departLane="best" from="507132798#8" to="153617524#5"/>
    <trip id="veh210" type="veh_passenger" depart="610.90" departLane="best" from="284274022#0" to="-466818182#2"/>
    <trip id="veh211" type="veh_passenger" depart="613.81" departLane="best" from="-153090301#4" to="467061055#0"/>
    <trip id="veh212" type="veh_passenger" depart="616.72" departLane="best" departSpeed="max" from="-467061052#1" to="700383603"/>
    <trip id="veh213" type="veh_passenger" depart="619.63" departLane="best" from="-284766136" to="284766090#1"/>
    <trip id="veh214" type="veh_passenger" depart="622.54" departLane="best" departSpeed="max" from="296391650" to="-153090291#5"/>
    <trip id="veh215" type="veh_passenger" depart="625.45" departLane="best" from="148530114" to="-284766051#2"/>
    <trip id="veh216" type="veh_passenger" depart="628.36" departLane="best" departSpeed="max" from="826565806" to="467061055#4"/>
    <trip id="veh218" type="veh_passenger" depart="634.18" departLane="best" from="829457129#0" to="467061052#1"/>
    <trip id="veh220" type="veh_passenger" depart="640.00" departLane="best" departSpeed="max" from="151967274#0" to="466818184#1"/>
    <trip id="veh221" type="veh_passenger" depart="642.90" departLane="best" from="156268173#3" to="168380363#0"/>
    <trip id="veh222" type="veh_passenger" depart="645.81" departLane="best" from="-284766090#4" to="-284766117#1"/>
    <trip id="veh223" type="veh_passenger" depart="648.72" departLane="best" from="152752290#2" to="-153027614#0"/>
    <trip id="veh224" type="veh_passenger" depart="651.63" departLane="best" departSpeed="max" from="-700399866" to="284766051#0"/>
    <trip id="veh225" type="veh_passenger" depart="654.54" departLane="best" from="148258859#2" to="-156357718#0"/>
    <trip id="veh226" type="veh_passenger" depart="657.45" departLane="best" from="-153090280#1" to="155207307#1"/>
    <trip id="veh227" type="veh_passenger" depart="660.36" departLane="best" departSpeed="max" from="181557190#0" to="-153027614#0"/>
    <trip id="veh228" type="veh_passenger" depart="663.27" departLane="best" from="128805958#2" to="156268179#15"/>
    <trip id="veh229" type="veh_passenger" depart="666.18" departLane="best" departSpeed="max" from="-153027614#5" to="25098040#1"/>
    <trip id="veh230" type="veh_passenger" depart="669.09" departLane="best" departSpeed="max" from="-156268179#20" to="153090280#1"/>
    <trip id="veh231" type="veh_passenger" depart="672.00" departLane="best" from="-153090280#1" to="123131426"/>
    <trip id="veh232" type="veh_passenger" depart="674.90" departLane="best" from="507132798#5" to="123131426"/>
    <trip id="veh233" type="veh_passenger" depart="677.81" departLane="best" from="477694280#0" to="700383611#2"/>
    <trip id="veh234" type="veh_passenger" depart="680.72" departLane="best" from="-296391648#1" to="-153090301#3"/>
    <trip id="veh235" type="veh_passenger" depart="683.63" departLane="best" from="-152752290#2" to="156268173#3"/>
    <trip id="veh236" type="veh_passenger" depart="686.54" departLane="best" departSpeed="max" from="949336812" to="-946207933#0"/>
    <trip id="veh237" type="veh_passenger" depart="689.45" departLane="best" from="284766055" to="467061052#1"/>
    <trip id="veh238" type="veh_passenger" depart="692.36" departLane="best" from="90231649#9" to="-284274024#9"/>
    <trip id="veh239" type="veh_passenger" depart="695.27" departLane="best" from="-152752290#3" to="-156275585#1"/>
    <trip id="veh240" type="veh_passenger" depart="698.18" departLane="best" from="-156268179#16" to="284667666#4"/>
    <trip id="veh241" type="veh_passenger" depart="701.09" departLane="best" from="507132798#1" to="284766090#5"/>
    <trip id="veh242" type="veh_passenger" depart="704.00" departLane="best" from="467061055#0" to="-153617510#5"/>
    <trip id="veh243" type="veh_passenger" depart="706.90" departLane="best" from="-700383603" to="924948800#8"/>
    <trip id="veh244" type="veh_passenger" depart="709.81" departLane="best" from="-153617524#5" to="152752298"/>
    <trip id="veh245" type="veh_passenger" depart="712.72" departLane="best" departSpeed="max" from="-700344865" to="284766047#5"/>
    <trip id="veh247" type="veh_passenger" depart="718.54" departLane="best" from="296391658" to="153090296#1"/>