<net xmlns:xsi="http://www.w3.org/2001/XMLSchema-instance" version="1.20" junctionCornerDetail="5" limitTurnSpeed="5.50" xsi:noNamespaceSchemaLocation="http://sumo.dlr.de/xsd/net_file.xsd">

    <location netOffset="11516511.77,-2347221.42" convBoundary="0.00,0.00,2378.49,1340.87" origBoundary="-103.454585,20.625015,-103.433219,20.636288" projParameter="+proj=merc +a=6378137 +b=6378137 +lat_ts=0.0 +lon_0=0.0 +x_0=0.0 +y_0=0 +k=1.0 +units=m +nadgrids=@null +wktext +no_defs" />

    <type id="highway.living_street" priority="2" numLanes="1" speed="2.78" disallow="tram rail_urban rail rail_electric rail_fast ship container cable_car subway aircraft wheelchair scooter drone" oneway="0" />
    <type id="highway.primary" priority="12" numLanes="2" speed="27.78" disallow="tram rail_urban rail rail_electric rail_fast ship container cable_car subway aircraft wheelchair scooter drone" oneway="0" />
    <type id="highway.primary_link" priority="7" numLanes="1" speed="22.22" disallow="tram rail_urban rail rail_electric rail_fast ship container cable_car subway aircraft wheelchair scooter drone" oneway="0" />
    <type id="highway.residential" priority="3" numLanes="1" speed="13.89" disallow="tram rail_urban rail rail_electric rail_fast ship container cable_car subway aircraft wheelchair scooter drone" oneway="0" />
    <type id="highway.secondary" priority="11" numLanes="1" speed="27.78" disallow="tram rail_urban rail rail_electric rail_fast ship container cable_car subway aircraft wheelchair scooter drone" oneway="0" />
    <type id="highway.secondary_link" priority="6" numLanes="1" speed="22.22" disallow="tram rail_urban rail rail_electric rail_fast ship container cable_car subway aircraft wheelchair scooter drone" oneway="0" />
    <type id="highway.tertiary" priority="10" numLanes="1" speed="22.22" disallow="tram rail_urban rail rail_electric rail_fast ship container cable_car subway aircraft wheelchair scooter drone" oneway="0" />
    <type id="highway.tertiary_link" priority="5" numLanes="1" speed="22.22" disallow="tram rail_urban rail rail_electric rail_fast ship container cable_car subway aircraft wheelchair scooter drone" oneway="0" />
    <type id="highway.trunk" priority="13" numLanes="2" speed="27.78" disallow="pedestrian bicycle tram rail_urban rail rail_electric rail_fast ship container cable_car subway aircraft wheelchair scooter drone" oneway="0" />
    <type id="highway.trunk_link" priority="8" numLanes="1" speed="22.22" disallow="pedestrian bicycle tram rail_urban rail rail_electric rail_fast ship container cable_car subway aircraft wheelchair scooter drone" oneway="0" />

    <edge id=":1046144621_0" function="internal">
        <lane id=":1046144621_0_0" index="0" disallow="tram rail_urban rail rail_electric rail_fast ship container cable_car subway aircraft wheelchair scooter drone" speed="12.50" length="40.34" shape="2264.99,253.40 2251.12,291.28" />
    </edge>
    <edge id=":1046144621_1" function="internal">
        <lane id=":1046144621_1_0" index="0" disallow="tram rail_urban rail rail_electric rail_fast ship container cable_car subway aircraft wheelchair scooter drone" speed="11.11" length="40.34" shape="2261.25,252.13 2259.30,261.06 2256.74,271.86 2253.90,282.59 2251.12,291.28" />
        <lane id=":1046144621_1_1" index="1" disallow="tram rail_urban rail rail_electric rail_fast ship container cable_car subway aircraft wheelchair scooter drone" speed="11.11" length="40.34" shape="2258.16,251.25 2256.23,260.14 2253.70,270.86 2250.89,281.50 2248.12,290.16" />
    </edge>
    <edge id=":1046144628_0" function="internal">
        <lane id=":1046144628_0_0" index="0" disallow="tram rail_urban rail rail_electric rail_fast ship container cable_car subway aircraft wheelchair scooter drone" speed="19.08" length="3.49" shape="1996.71,687.14 1995.70,687.36 1994.99,687.45 1994.28,687.44 1993.25,687.34" />
    </edge>
    <edge id=":1046144628_1" function="internal">
        <lane id=":1046144628_1_0" index="0" disallow="tram rail_urban rail rail_electric rail_fast ship container cable_car subway aircraft wheelchair scooter drone" speed="12.33" length="4.47" shape="1997.28,689.81 1996.03,690.25 1995.15,690.52 1994.24,690.61 1992.93,690.53" />
    </edge>
    <edge id=":1046144632_0" function="internal">
        <lane id=":1046144632_0_0" index="0" disallow="tram rail_urban rail rail_electric rail_fast ship container cable_car subway aircraft wheelchair scooter drone" speed="22.22" length="3.33" shape="1551.94,654.35 1548.63,654.06" />
    </edge>
    <edge id=":1046144632_1" function="internal">
        <lane id=":1046144632_1_0" index="0" disallow="tram rail_urban rail rail_electric rail_fast ship container cable_car subway aircraft wheelchair scooter drone" speed="22.22" length="3.24" shape="1552.19,651.16 1551.23,651.09 1550.58,651.01 1549.93,650.88 1548.99,650.67" />
    </edge>
    <edge id=":1046144689_0" function="internal">
        <lane id=":1046144689_0_0" index="0" disallow="tram rail_urban rail rail_electric rail_fast ship container cable_car subway aircraft wheelchair scooter drone" speed="25.00" length="3.24" shape="1528.73,645.89 1527.80,645.67 1527.15,645.55 1526.50,645.47 1525.54,645.39" />
    </edge>
    <edge id=":1046144689_1" function="internal">
        <lane id=":1046144689_1_0" index="0" disallow="tram rail_urban rail rail_electric rail_fast ship container cable_car subway aircraft wheelchair scooter drone" speed="27.78" length="3.19" shape="1528.99,642.45 1525.80,642.20" />
        <lane id=":1046144689_1_1" index="1" disallow="tram rail_urban rail rail_electric rail_fast ship container cable_car subway aircraft wheelchair scooter drone" speed="27.78" length="3.19" shape="1529.24,639.26 1526.06,639.01" />
    </edge>
    <edge id=":1046144718_0" function="internal">
        <lane id=":1046144718_0_0" index="0" disallow="pedestrian bicycle tram rail_urban rail rail_electric rail_fast ship container cable_car subway aircraft wheelchair scooter drone" speed="16.66" length="7.01" shape="2274.75,210.28 2273.86,212.15 2273.10,213.35 2272.21,214.48 2270.94,216.13" />
        <lane id=":1046144718_0_1" index="1" disallow="pedestrian bicycle tram rail_urban rail rail_electric rail_fast ship container cable_car subway aircraft wheelchair scooter drone" speed="16.66" length="6.26" shape="2271.82,209.01 2271.02,210.68 2270.33,211.75 2269.52,212.74 2268.38,214.22" />
    </edge>
    <edge id=":1046144718_2" function="internal">
        <lane id=":1046144718_2_0" index="0" disallow="pedestrian bicycle tram rail_urban rail rail_electric rail_fast ship container cable_car subway aircraft wheelchair scooter drone" speed="22.22" length="5.27" shape="2268.88,207.75 2268.39,209.53 2268.44,210.85 2268.51,212.18 2268.06,213.98" />
        <lane id=":1046144718_2_1" index="1" disallow="pedestrian bicycle tram rail_urban rail rail_electric rail_fast ship container cable_car subway aircraft wheelchair scooter drone" speed="22.22" length="5.27" shape="2265.94,206.48 2265.54,208.05 2265.65,209.23 2265.77,210.41 2265.41,212.00" />
        <lane id=":1046144718_2_2" index="2" disallow="pedestrian bicycle tram rail_urban rail rail_electric rail_fast ship container cable_car subway aircraft wheelchair scooter drone" speed="22.22" length="5.27" shape="2263.00,205.21 2262.69,206.58 2262.86,207.60 2263.04,208.63 2262.76,210.01" />
        <lane id=":1046144718_2_3" index="3" disallow="pedestrian bicycle tram rail_urban rail rail_electric rail_fast ship container cable_car subway aircraft wheelchair scooter drone" speed="22.22" length="5.27" shape="2260.07,203.94 2259.84,205.10 2260.07,205.98 2260.31,206.85 2260.11,208.03" />
    </edge>
    <edge id=":1046144737_0" function="internal">
        <lane id=":1046144737_0_0" index="0" disallow="tram rail_urban rail rail_electric rail_fast ship container cable_car subway aircraft wheelchair scooter drone" speed="5.77" length="2.03" shape="2011.25,714.49 2011.47,713.94 2011.68,713.57 2011.98,713.28 2012.47,712.96" />
    </edge>
    <edge id=":1046144737_1" function="internal">
        <lane id=":1046144737_1_0" index="0" disallow="tram rail_urban rail rail_electric rail_fast ship container cable_car subway aircraft wheelchair scooter drone" speed="11.11" length="2.98" shape="2014.22,715.66 2015.30,712.90" />
        <lane id=":1046144737_1_1" index="1" disallow="tram rail_urban rail rail_electric rail_fast ship container cable_car subway aircraft wheelchair scooter drone" speed="11.11" length="2.98" shape="2017.20,716.84 2018.29,714.05" />
    </edge>
    <edge id=":11605796521_0" function="internal">
        <lane id=":11605796521_0_0" index="0" disallow="tram rail_urban rail rail_electric rail_fast ship container cable_car subway aircraft wheelchair scooter drone" speed="13.89" length="3.26" shape="2325.53,126.16 2324.10,129.09" />
    </edge>
    <edge id=":11605796521_1" function="internal">
        <lane id=":11605796521_1_0" index="0" disallow="pedestrian bicycle tram rail_urban rail rail_electric rail_fast ship container cable_car subway aircraft wheelchair scooter drone" speed="18.05" length="3.30" shape="2322.67,124.73 2322.23,125.61 2321.90,126.19 2321.51,126.75 2320.92,127.53" />
    </edge>
    <edge id=":11621767811_0" function="internal">
        <lane id=":11621767811_0_0" index="0" disallow="tram rail_urban rail rail_electric rail_fast ship container cable_car subway aircraft wheelchair scooter drone" speed="6.91" length="9.56" shape="2215.05,398.13 2212.37,397.64 2210.16,398.01 2208.40,399.23 2207.10,401.31" />
    </edge>
    <edge id=":11621767811_1" function="internal">
        <lane id=":11621767811_1_0" index="0" disallow="tram rail_urban rail rail_electric rail_fast ship container cable_car subway aircraft wheelchair scooter drone" speed="3.65" length="4.67" shape="2215.05,398.13 2214.14,397.01 2214.00,396.12 2214.62,395.48 2216.01,395.08" />
    </edge>
    <edge id=":11621767811_2" function="internal">
        <lane id=":11621767811_2_0" index="0" disallow="tram rail_urban rail rail_electric rail_fast ship container cable_car subway aircraft wheelchair scooter drone" speed="6.30" length="9.04" shape="2212.77,388.04 2212.12,390.47 2212.45,392.45 2213.74,393.99 2216.01,395.08" />
    </edge>
    <edge id=":11621767811_3" function="internal">
        <lane id=":11621767811_3_0" index="0" disallow="tram rail_urban rail rail_electric rail_fast ship container cable_car subway aircraft wheelchair scooter drone" speed="11.11" length="14.43" shape="2212.77,388.04 2207.10,401.31" />
        <lane id=":11621767811_3_1" index="1" disallow="tram rail_urban rail rail_electric rail_fast ship container cable_car subway aircraft wheelchair scooter drone" speed="11.11" length="14.43" shape="2209.83,386.78 2204.16,400.05" />
    </edge>
    <edge id=":12015433586_0" function="internal">
        <lane id=":12015433586_0_0" index="0" disallow="tram rail_urban rail rail_electric rail_fast ship container cable_car subway aircraft wheelchair scooter drone" speed="3.65" length="4.67" shape="254.96,84.42 256.41,84.47 257.16,84.94 257.24,85.83 256.64,87.14" />
    </edge>
    <edge id=":123131426-AddedOnRampNode_0" function="internal">
        <lane id=":123131426-AddedOnRampNode_0_0" index="0" disallow="tram rail_urban rail rail_electric rail_fast ship container cable_car subway aircraft wheelchair scooter drone" speed="13.89" length="8.00" shape="1818.34,653.56 1826.31,654.18" />
        <lane id=":123131426-AddedOnRampNode_0_1" index="1" disallow="tram rail_urban rail rail_electric rail_fast ship container cable_car subway aircraft wheelchair scooter drone" speed="13.89" length="8.00" shape="1818.09,656.75 1826.07,657.37" />
    </edge>
    <edge id=":123131429-AddedOffRampNode_0" function="internal">
        <lane id=":123131429-AddedOffRampNode_0_0" index="0" disallow="tram rail_urban rail rail_electric rail_fast ship container cable_car subway aircraft wheelchair scooter drone" speed="27.78" length="8.27" shape="1826.21,666.03 1823.71,666.34 1822.09,667.32 1820.48,668.30 1817.98,668.61" />
        <lane id=":123131429-AddedOffRampNode_0_1" index="1" disallow="tram rail_urban rail rail_electric rail_fast ship container cable_car subway aircraft wheelchair scooter drone" speed="27.78" length="8.27" shape="1826.21,666.03 1818.23,665.42" />
        <lane id=":123131429-AddedOffRampNode_0_2" index="2" disallow="tram rail_urban rail rail_electric rail_fast ship container cable_car subway aircraft wheelchair scooter drone" speed="27.78" length="8.27" shape="1826.45,662.84 1818.48,662.23" />
    </edge>
    <edge id=":1395059766_0" function="internal">
        <lane id=":1395059766_0_0" index="0" disallow="tram rail_urban rail rail_electric rail_fast ship container cable_car subway aircraft wheelchair scooter drone" speed="5.16" length="6.29" shape="1224.46,605.03 1224.62,605.72 1225.59,606.27 1227.38,606.70 1229.99,607.01" />
        <lane id=":1395059766_0_1" index="1" disallow="tram rail_urban rail rail_electric rail_fast ship container cable_car subway aircraft wheelchair scooter drone" speed="6.88" length="12.14" shape="1221.43,604.01 1221.27,606.42 1222.60,608.25 1225.42,609.51 1229.74,610.20" />
    </edge>
    <edge id=":1395059766_2" function="internal">
        <lane id=":1395059766_2_0" index="0" disallow="tram rail_urban rail rail_electric rail_fast ship container cable_car subway aircraft wheelchair scooter drone" speed="11.11" length="9.39" shape="1218.40,602.99 1218.47,605.90 1220.13,607.87 1221.79,609.85 1221.88,612.77" />
        <lane id=":1395059766_2_1" index="1" disallow="tram rail_urban rail rail_electric rail_fast ship container cable_car subway aircraft wheelchair scooter drone" speed="11.11" length="9.39" shape="1218.40,602.99 1218.07,605.53 1218.61,607.38 1219.16,609.22 1218.84,611.77" />
        <lane id=":1395059766_2_2" index="2" disallow="tram rail_urban rail rail_electric rail_fast ship container cable_car subway aircraft wheelchair scooter drone" speed="11.11" length="9.39" shape="1218.40,602.99 1215.80,610.77" />
    </edge>
    <edge id=":1395059766_5" function="internal">
        <lane id=":1395059766_5_0" index="0" disallow="tram rail_urban rail rail_electric rail_fast ship container cable_car subway aircraft wheelchair scooter drone" speed="13.89" length="19.37" shape="1210.75,605.03 1229.99,607.01" />
        <lane id=":1395059766_5_1" index="1" disallow="tram rail_urban rail rail_electric rail_fast ship container cable_car subway aircraft wheelchair scooter drone" speed="13.89" length="19.37" shape="1210.43,608.22 1229.74,610.20" />
    </edge>
    <edge id=":1395059766_7" function="internal">
        <lane id=":1395059766_7_0" index="0" disallow="tram rail_urban rail rail_electric rail_fast ship container cable_car subway aircraft wheelchair scooter drone" speed="6.37" length="9.66" shape="1210.43,608.22 1214.38,608.98 1217.09,609.82 1218.58,610.75 1218.84,611.77" />
        <lane id=":1395059766_7_1" index="1" disallow="tram rail_urban rail rail_electric rail_fast ship container cable_car subway aircraft wheelchair scooter drone" speed="5.32" length="6.38" shape="1210.43,608.22 1212.98,608.72 1214.73,609.32 1215.67,610.00 1215.80,610.77" />
    </edge>
    <edge id=":1395059768_0" function="internal">
        <lane id=":1395059768_0_0" index="0" disallow="tram rail_urban rail rail_electric rail_fast ship container cable_car subway aircraft wheelchair scooter drone" speed="6.49" length="7.77" shape="1226.55,617.73 1223.84,617.69 1221.81,618.07 1220.43,618.87 1219.72,620.08" />
    </edge>
    <edge id=":1395059768_1" function="internal">
        <lane id=":1395059768_1_0" index="0" disallow="tram rail_urban rail rail_electric rail_fast ship container cable_car subway aircraft wheelchair scooter drone" speed="27.78" length="17.39" shape="1226.55,617.73 1209.12,615.48" />
        <lane id=":1395059768_1_1" index="1" disallow="tram rail_urban rail rail_electric rail_fast ship container cable_car subway aircraft wheelchair scooter drone" speed="27.78" length="17.39" shape="1226.81,614.54 1209.74,612.33" />
    </edge>
    <edge id=":1395059768_3" function="internal">
        <lane id=":1395059768_3_0" index="0" disallow="tram rail_urban rail rail_electric rail_fast ship container cable_car subway aircraft wheelchair scooter drone" speed="11.11" length="8.79" shape="1221.82,612.96 1219.72,620.08" />
        <lane id=":1395059768_3_1" index="1" disallow="tram rail_urban rail rail_electric rail_fast ship container cable_car subway aircraft wheelchair scooter drone" speed="11.11" length="8.79" shape="1221.82,612.96 1220.62,615.03 1219.14,616.09 1217.70,617.16 1216.63,619.26" />
        <lane id=":1395059768_3_2" index="2" disallow="tram rail_urban rail rail_electric rail_fast ship container cable_car subway aircraft wheelchair scooter drone" speed="11.11" length="8.79" shape="1221.82,612.96 1220.05,615.13 1217.57,615.67 1215.15,616.23 1213.54,618.45" />
    </edge>
    <edge id=":1395059768_6" function="internal">
        <lane id=":1395059768_6_0" index="0" disallow="tram rail_urban rail rail_electric rail_fast ship container cable_car subway aircraft wheelchair scooter drone" speed="7.68" length="11.18" shape="1218.78,611.96 1217.61,613.92 1215.60,615.16 1212.77,615.68 1209.12,615.48" />
        <lane id=":1395059768_6_1" index="1" disallow="tram rail_urban rail rail_electric rail_fast ship container cable_car subway aircraft wheelchair scooter drone" speed="6.04" length="6.57" shape="1215.74,610.96 1215.11,611.83 1213.90,612.35 1212.11,612.52 1209.74,612.33" />
    </edge>
    <edge id=":1409296908_0" function="internal">
        <lane id=":1409296908_0_0" index="0" disallow="tram rail_urban rail rail_electric rail_fast ship container cable_car subway aircraft wheelchair scooter drone" speed="6.82" length="10.23" shape="2310.49,366.40 2308.66,364.68 2306.56,364.07 2304.19,364.58 2301.54,366.21" />
    </edge>
    <edge id=":1409296908_1" function="internal">
        <lane id=":1409296908_1_0" index="0" disallow="tram rail_urban rail rail_electric rail_fast ship container cable_car subway aircraft wheelchair scooter drone" speed="13.89" length="15.08" shape="2310.49,366.40 2308.07,363.53 2305.32,360.94 2302.32,358.64 2299.14,356.62" />
    </edge>
    <edge id=":1409296908_2" function="internal">
        <lane id=":1409296908_2_0" index="0" disallow="tram rail_urban rail rail_electric rail_fast ship container cable_car subway aircraft wheelchair scooter drone" speed="7.94" length="14.32" shape="2310.49,366.40 2308.61,362.93 2308.33,359.72 2309.63,356.78 2312.53,354.10" />
    </edge>
    <edge id=":1409296908_3" function="internal">
        <lane id=":1409296908_3_0" index="0" disallow="tram rail_urban rail rail_electric rail_fast ship container cable_car subway aircraft wheelchair scooter drone" speed="3.65" length="4.67" shape="2310.49,366.40 2310.41,364.96 2310.82,364.16 2311.70,364.00 2313.06,364.49" />
    </edge>
    <edge id=":1409296908_4" function="internal">
        <lane id=":1409296908_4_0" index="0" disallow="tram rail_urban rail rail_electric rail_fast ship container cable_car subway aircraft wheelchair scooter drone" speed="6.43" length="9.03" shape="2314.35,356.74 2312.52,358.43 2311.70,360.28 2311.88,362.30 2313.06,364.49" />
    </edge>
    <edge id=":1409296908_5" function="internal">
        <lane id=":1409296908_5_0" index="0" disallow="tram rail_urban rail rail_electric rail_fast ship container cable_car subway aircraft wheelchair scooter drone" speed="13.89" length="15.93" shape="2314.35,356.74 2301.54,366.21" />
    </edge>
    <edge id=":1409296908_6" function="internal">
        <lane id=":1409296908_6_0" index="0" disallow="tram rail_urban rail rail_electric rail_fast ship container cable_car subway aircraft wheelchair scooter drone" speed="10.21" length="3.93" shape="2314.35,356.74 2311.11,358.06 2310.68,358.10" />
    </edge>
    <edge id=":1409296908_7" function="internal">
        <lane id=":1409296908_7_0" index="0" disallow="tram rail_urban rail rail_electric rail_fast ship container cable_car subway aircraft wheelchair scooter drone" speed="3.65" length="1.44" shape="2314.35,356.74 2312.90,356.76" />
    </edge>
    <edge id=":1409296908_16" function="internal">
        <lane id=":1409296908_16_0" index="0" disallow="tram rail_urban rail rail_electric rail_fast ship container cable_car subway aircraft wheelchair scooter drone" speed="10.21" length="11.83" shape="2310.68,358.10 2307.02,358.47 2302.80,357.99 2299.14,356.62" />
    </edge>
    <edge id=":1409296908_17" function="internal">
        <lane id=":1409296908_17_0" index="0" disallow="tram rail_urban rail rail_electric rail_fast ship container cable_car subway aircraft wheelchair scooter drone" speed="3.65" length="3.23" shape="2312.90,356.76 2312.12,356.33 2312.00,355.44 2312.53,354.10" />
    </edge>
    <edge id=":1409296908_8" function="internal">
        <lane id=":1409296908_8_0" index="0" disallow="tram rail_urban rail rail_electric rail_fast ship container cable_car subway aircraft wheelchair scooter drone" speed="7.13" length="14.00" shape="2301.08,353.64 2302.49,356.33 2304.86,357.30 2308.21,356.56 2312.53,354.10" />
    </edge>
    <edge id=":1409296908_9" function="internal">
        <lane id=":1409296908_9_0" index="0" disallow="tram rail_urban rail rail_electric rail_fast ship container cable_car subway aircraft wheelchair scooter drone" speed="13.89" length="16.37" shape="2301.08,353.64 2303.06,356.81 2306.42,359.37 2310.11,361.78 2313.06,364.49" />
    </edge>
    <edge id=":1409296908_10" function="internal">
        <lane id=":1409296908_10_0" index="0" disallow="tram rail_urban rail rail_electric rail_fast ship container cable_car subway aircraft wheelchair scooter drone" speed="9.14" length="12.95" shape="2301.08,353.64 2302.16,358.45 2302.59,362.15 2302.39,364.74 2301.54,366.21" />
    </edge>
    <edge id=":1409296908_11" function="internal">
        <lane id=":1409296908_11_0" index="0" disallow="tram rail_urban rail rail_electric rail_fast ship container cable_car subway aircraft wheelchair scooter drone" speed="4.25" length="5.18" shape="2301.08,353.64 2301.71,355.11 2301.60,356.10 2300.74,356.60 2299.14,356.62" />
    </edge>
    <edge id=":1409296908_12" function="internal">
        <lane id=":1409296908_12_0" index="0" disallow="tram rail_urban rail rail_electric rail_fast ship container cable_car subway aircraft wheelchair scooter drone" speed="5.82" length="9.07" shape="2299.56,363.69 2301.42,361.78 2301.96,359.96 2301.20,358.24 2299.14,356.62" />
    </edge>
    <edge id=":1409296908_13" function="internal">
        <lane id=":1409296908_13_0" index="0" disallow="tram rail_urban rail rail_electric rail_fast ship container cable_car subway aircraft wheelchair scooter drone" speed="13.89" length="16.13" shape="2299.56,363.69 2312.53,354.10" />
    </edge>
    <edge id=":1409296908_14" function="internal">
        <lane id=":1409296908_14_0" index="0" disallow="tram rail_urban rail rail_electric rail_fast ship container cable_car subway aircraft wheelchair scooter drone" speed="8.26" length="5.04" shape="2299.56,363.69 2303.47,361.34 2303.94,361.26" />
    </edge>
    <edge id=":1409296908_15" function="internal">
        <lane id=":1409296908_15_0" index="0" disallow="tram rail_urban rail rail_electric rail_fast ship container cable_car subway aircraft wheelchair scooter drone" speed="3.65" length="1.44" shape="2299.56,363.69 2301.00,363.58" />
    </edge>
    <edge id=":1409296908_18" function="internal">
        <lane id=":1409296908_18_0" index="0" disallow="tram rail_urban rail rail_electric rail_fast ship container cable_car subway aircraft wheelchair scooter drone" speed="8.26" length="10.45" shape="2303.94,361.26 2307.02,360.69 2310.21,361.74 2313.06,364.49" />
    </edge>
    <edge id=":1409296908_19" function="internal">
        <lane id=":1409296908_19_0" index="0" disallow="tram rail_urban rail rail_electric rail_fast ship container cable_car subway aircraft wheelchair scooter drone" speed="3.65" length="3.23" shape="2301.00,363.58 2301.81,363.96 2301.99,364.84 2301.54,366.21" />
    </edge>
    <edge id=":1422421165_0" function="internal">
        <lane id=":1422421165_0_0" index="0" disallow="tram rail_urban rail rail_electric rail_fast ship container cable_car subway aircraft wheelchair scooter drone" speed="7.08" length="9.72" shape="2095.92,506.30 2098.66,506.82 2100.95,506.50 2102.79,505.34 2104.18,503.33" />
    </edge>
    <edge id=":1422421165_1" function="internal">
        <lane id=":1422421165_1_0" index="0" disallow="tram rail_urban rail rail_electric rail_fast ship container cable_car subway aircraft wheelchair scooter drone" speed="3.65" length="4.67" shape="2095.92,506.30 2096.82,507.43 2096.96,508.31 2096.34,508.95 2094.95,509.35" />
    </edge>
    <edge id=":1422421165_2" function="internal">
        <lane id=":1422421165_2_0" index="0" disallow="tram rail_urban rail rail_electric rail_fast ship container cable_car subway aircraft wheelchair scooter drone" speed="6.26" length="9.05" shape="2098.06,516.39 2098.77,513.97 2098.49,511.99 2097.22,510.45 2094.95,509.35" />
    </edge>
    <edge id=":1422421165_3" function="internal">
        <lane id=":1422421165_3_0" index="0" disallow="tram rail_urban rail rail_electric rail_fast ship container cable_car subway aircraft wheelchair scooter drone" speed="11.11" length="14.40" shape="2098.06,516.39 2104.18,503.33" />
        <lane id=":1422421165_3_1" index="1" disallow="tram rail_urban rail rail_electric rail_fast ship container cable_car subway aircraft wheelchair scooter drone" speed="11.11" length="14.40" shape="2100.96,517.73 2107.07,504.72" />
    </edge>
    <edge id=":1422421173_0" function="internal">
        <lane id=":1422421173_0_0" index="0" disallow="tram rail_urban rail rail_electric rail_fast ship container cable_car subway aircraft wheelchair scooter drone" speed="16.66" length="0.44" shape="2208.13,277.01 2208.23,276.94 2208.31,276.90 2208.40,276.86 2208.52,276.82" />
    </edge>
    <edge id=":1422421701_0" function="internal">
        <lane id=":1422421701_0_0" index="0" disallow="tram rail_urban rail rail_electric rail_fast ship container cable_car subway aircraft wheelchair scooter drone" speed="12.50" length="31.37" shape="2231.66,181.31 2234.08,174.01 2236.18,166.36 2238.12,158.65 2240.05,151.19" />
        <lane id=":1422421701_0_1" index="1" disallow="tram rail_urban rail rail_electric rail_fast ship container cable_car subway aircraft wheelchair scooter drone" speed="12.50" length="31.37" shape="2231.66,181.31 2234.56,174.14 2237.72,166.78 2240.72,159.36 2243.14,152.03" />
    </edge>
    <edge id=":1422421701_2" function="internal">
        <lane id=":1422421701_2_0" index="0" disallow="tram rail_urban rail rail_electric rail_fast ship container cable_car subway aircraft wheelchair scooter drone" speed="11.11" length="31.56" shape="2231.66,181.31 2234.72,174.19 2238.42,167.00 2242.46,159.98 2246.52,153.34" />
        <lane id=":1422421701_2_1" index="1" disallow="tram rail_urban rail rail_electric rail_fast ship container cable_car subway aircraft wheelchair scooter drone" speed="11.11" length="31.56" shape="2234.65,182.44 2237.70,175.36 2241.36,168.28 2245.36,161.36 2249.40,154.77" />
    </edge>
    <edge id=":148258859#2-AddedOnRampNode_0" function="internal">
        <lane id=":148258859#2-AddedOnRampNode_0_0" index="0" disallow="tram rail_urban rail rail_electric rail_fast ship container cable_car subway aircraft wheelchair scooter drone" speed="27.78" length="8.00" shape="1431.74,634.51 1423.76,633.86" />
        <lane id=":148258859#2-AddedOnRampNode_0_1" index="1" disallow="tram rail_urban rail rail_electric rail_fast ship container cable_car subway aircraft wheelchair scooter drone" speed="27.78" length="8.00" shape="1432.00,631.32 1424.02,630.67" />
    </edge>
    <edge id=":151967601#1-AddedOffRampNode_0" function="internal">
        <lane id=":151967601#1-AddedOffRampNode_0_0" index="0" disallow="tram rail_urban rail rail_electric rail_fast ship container cable_car subway aircraft wheelchair scooter drone" speed="13.89" length="8.27" shape="1424.71,622.45 1427.20,622.15 1428.82,621.17 1430.45,620.20 1432.94,619.90" />
        <lane id=":151967601#1-AddedOffRampNode_0_1" index="1" disallow="tram rail_urban rail rail_electric rail_fast ship container cable_car subway aircraft wheelchair scooter drone" speed="13.89" length="8.27" shape="1424.71,622.45 1432.69,623.09" />
        <lane id=":151967601#1-AddedOffRampNode_0_2" index="2" disallow="tram rail_urban rail rail_electric rail_fast ship container cable_car subway aircraft wheelchair scooter drone" speed="13.89" length="8.27" shape="1424.46,625.64 1432.43,626.28" />
    </edge>
    <edge id=":1613615958_0" function="internal">
        <lane id=":1613615958_0_0" index="0" disallow="tram rail_urban rail rail_electric rail_fast ship container cable_car subway aircraft wheelchair scooter drone" speed="13.89" length="8.72" shape="2245.76,798.49 2244.36,789.88" />
    </edge>
    <edge id=":1613615958_1" function="internal">
        <lane id=":1613615958_1_0" index="0" disallow="tram rail_urban rail rail_electric rail_fast ship container cable_car subway aircraft wheelchair scooter drone" speed="5.91" length="8.35" shape="2245.76,798.49 2245.58,795.59 2246.04,793.56 2247.13,792.37 2248.85,792.05" />
    </edge>
    <edge id=":1613615958_2" function="internal">
        <lane id=":1613615958_2_0" index="0" disallow="tram rail_urban rail rail_electric rail_fast ship container cable_car subway aircraft wheelchair scooter drone" speed="6.52" length="1.22" shape="2248.69,795.24 2247.52,794.94" />
    </edge>
    <edge id=":1613615958_3" function="internal">