<?xml version="1.0" encoding="UTF-8"?>

<!-- generated on 2024-11-18 23:01:04 by Eclipse SUMO netedit Version 1.21.0
-->

<routes xmlns:xsi="http://www.w3.org/2001/XMLSchema-instance" xsi:noNamespaceSchemaLocation="http://sumo.dlr.de/xsd/routes_file.xsd">
    <!-- Vehicles, persons and containers (sorted by depart) -->
    <trip id="t_6" type="DEFAULT_PEDTYPE" depart="0.00" from="E2" to="-E0"/>
    <flow id="f_0" begin="0.00" from="E0" to="-E4" end="3600.00" vehsPerHour="1800"/>
    <flow id="f_1" begin="0.00" from="-E6" to="E5" end="300.00" vehsPerHour="180"/>
    <flow id="f_10" begin="0.00" from="-E3" to="E5" end="500.00" probability="0.25"/>
    <flow id="f_11" begin="0.00" from="-E3" to="-E4" end="500.00" probability="0.25"/>
    <flow id="f_12" begin="0.00" from="-E3" to="-E0" end="500.00" probability="0.25"/>
    <flow id="f_13" begin="0.00" from="-E5" to="E6" end="1000.00" probability="0.2999999999999999889"/>
    <flow id="f_14" begin="0.00" from="-E1" to="E3" end="500.00" vehsPerHour="1800"/>
    <flow id="f_15" begin="0.00" from="E2" to="-E4" end="500.00" probability="0.25"/>
    <flow id="f_16" begin="0.00" from="E2" to="-E0" end="500.00" probability="0.25"/>
    <flow id="f_17" begin="0.00" from="E2" to="E3" end="500.00" probability="0.25"/>
    <flow id="f_18" begin="0.00" from="-E5" to="-E4" end="3000.00" vehsPerHour="1500"/>
    <flow id="f_19" begin="0.00" from="E0" to="E5" end="3000.00" period="1.80"/>
    <flow id="f_2" begin="0.00" from="E4" to="-E0" end="1000.00" probability="0.5"/>
    <flow id="f_20" begin="0.00" from="E0" to="-E2" end="500.00" probability="0.25"/>
    <flow id="f_21" begin="0.00" from="E0" to="E3" end="500.00" probability="0.25"/>
    <flow id="f_22" begin="0.00" from="E0" to="E6" end="500.00" probability="0.25"/>
    <flow id="f_3" begin="0.00" from="E2" to="E5" end="500.00" probability="0.25"/>
    <flow id="f_4" begin="0.00" from="-E3" to="-E2" end="3600.00" probability="0.25"/>
    <flow id="f_5" begin="0.00" from="E4" to="E5" end="3000.00" vehsPerHour="1000"/>
    <flow id="f_6" begin="0.00" from="-E6" to="-E0" end="30.00" vehsPerHour="300"/>
    <flow id="f_7" begin="0.00" from="-E6" to="-E4" end="300.00" vehsPerHour="180"/>
    <flow id="f_8" begin="0.00" from="E4" to="-E2" number="200" probability="0.25"/>
    <flow id="f_9" begin="0.00" from="E4" to="E5" via="E1" number="500" probability="0.10000000000000000555"/>
</routes>
