<?xml version="1.0" encoding="UTF-8"?>

<!-- generated on 2024-11-18 23:01:04 by Eclipse SUMO netedit Version 1.21.0
<neteditConfiguration xmlns:xsi="http://www.w3.org/2001/XMLSchema-instance" xsi:noNamespaceSchemaLocation="http://sumo.dlr.de/xsd/neteditConfiguration.xsd">

    <input>
        <sumocfg-file value="G:\My Drive\ITESO\Tareas\ADA\Proyecto\SUMO_Simulation\RedTraficoZMG_DemandaVehicular_2.sumocfg"/>
        <additional-files value="G:\My Drive\ITESO\Tareas\ADA\Proyecto\SUMO_Simulation\RedTraficoZMG_DemandaVehicular_2.add.xml"/>
        <route-files value="G:\My Drive\ITESO\Tareas\ADA\Proyecto\SUMO_Simulation\RedTraficoZMG_DemandaVehicular_2.rou.xml"/>
        <sumo-net-file value="G:\My Drive\ITESO\Tareas\ADA\Proyecto\SUMO_Simulation\RedTraficoZMG_2.net.xml"/>
    </input>

    <output>
        <output-file value="G:\My Drive\ITESO\Tareas\ADA\Proyecto\SUMO_Simulation\RedTraficoZMG_2.net.xml"/>
    </output>

    <processing>
        <geometry.min-radius.fix.railways value="false"/>
        <geometry.max-grade.fix value="false"/>
        <offset.disable-normalization value="true"/>
        <lefthand value="0"/>
    </processing>

    <junctions>
        <no-turnarounds value="true"/>
        <junctions.corner-detail value="5"/>
        <junctions.limit-turn-speed value="5.50"/>
        <rectangular-lane-cut value="0"/>
    </junctions>

    <pedestrian>
        <walkingareas value="0"/>
    </pedestrian>

</neteditConfiguration>
-->

<net version="1.20" junctionCornerDetail="5" limitTurnSpeed="5.50" xmlns:xsi="http://www.w3.org/2001/XMLSchema-instance" xsi:noNamespaceSchemaLocation="http://sumo.dlr.de/xsd/net_file.xsd">

    <location netOffset="0.00,0.00" convBoundary="0.00,-100.00,300.00,100.00" origBoundary="-10000000000.00,-10000000000.00,10000000000.00,10000000000.00" projParameter="!"/>

    <edge id=":J1_0" function="internal">
        <lane id=":J1_0_0" index="0" speed="6.51" length="9.03" shape="98.40,7.20 98.05,4.75 97.00,3.00 95.25,1.95 92.80,1.60"/>
    </edge>
    <edge id=":J1_1" function="internal">
        <lane id=":J1_1_0" index="0" speed="13.89" length="14.40" shape="98.40,7.20 98.40,-7.20"/>
    </edge>
    <edge id=":J1_2" function="internal">
        <lane id=":J1_2_0" index="0" speed="8.00" length="14.19" shape="98.40,7.20 98.95,3.35 100.60,0.60 103.35,-1.05 107.20,-1.60"/>
    </edge>
    <edge id=":J1_3" function="internal">
        <lane id=":J1_3_0" index="0" speed="6.51" length="9.03" shape="107.20,1.60 104.75,1.95 103.00,3.00 101.95,4.75 101.60,7.20"/>
    </edge>
    <edge id=":J1_4" function="internal">
        <lane id=":J1_4_0" index="0" speed="13.89" length="14.40" shape="107.20,1.60 92.80,1.60"/>
    </edge>
    <edge id=":J1_5" function="internal">
        <lane id=":J1_5_0" index="0" speed="8.00" length="14.19" shape="107.20,1.60 103.35,1.05 100.60,-0.60 98.95,-3.35 98.40,-7.20"/>
    </edge>
    <edge id=":J1_6" function="internal">
        <lane id=":J1_6_0" index="0" speed="3.65" length="4.67" shape="107.20,1.60 106.00,0.80 105.60,0.00 106.00,-0.80 107.20,-1.60"/>
    </edge>
    <edge id=":J1_7" function="internal">
        <lane id=":J1_7_0" index="0" speed="6.51" length="9.03" shape="101.60,-7.20 101.95,-4.75 103.00,-3.00 104.75,-1.95 107.20,-1.60"/>
    </edge>
    <edge id=":J1_8" function="internal">
        <lane id=":J1_8_0" index="0" speed="13.89" length="14.40" shape="101.60,-7.20 101.60,7.20"/>
    </edge>
    <edge id=":J1_9" function="internal">
        <lane id=":J1_9_0" index="0" speed="8.00" length="14.19" shape="101.60,-7.20 101.05,-3.35 99.40,-0.60 96.65,1.05 92.80,1.60"/>
    </edge>
    <edge id=":J1_10" function="internal">
        <lane id=":J1_10_0" index="0" speed="6.51" length="9.03" shape="92.80,-1.60 95.25,-1.95 97.00,-3.00 98.05,-4.75 98.40,-7.20"/>
    </edge>
    <edge id=":J1_11" function="internal">
        <lane id=":J1_11_0" index="0" speed="13.89" length="14.40" shape="92.80,-1.60 107.20,-1.60"/>
    </edge>
    <edge id=":J1_12" function="internal">
        <lane id=":J1_12_0" index="0" speed="8.00" length="14.19" shape="92.80,-1.60 96.65,-1.05 99.40,0.60 101.05,3.35 101.60,7.20"/>
    </edge>
    <edge id=":J2_0" function="internal">
        <lane id=":J2_0_0" index="0" speed="6.51" length="9.03" shape="195.20,7.20 194.85,4.75 193.80,3.00 192.05,1.95 189.60,1.60"/>
    </edge>
    <edge id=":J2_1" function="internal">
        <lane id=":J2_1_0" index="0" speed="13.89" length="14.40" shape="195.20,7.20 195.20,-7.20"/>
        <lane id=":J2_1_1" index="1" speed="13.89" length="14.40" shape="198.40,7.20 198.40,-7.20"/>
    </edge>
    <edge id=":J2_3" function="internal">
        <lane id=":J2_3_0" index="0" speed="6.51" length="9.03" shape="210.40,1.60 207.95,1.95 206.20,3.00 205.15,4.75 204.80,7.20"/>
        <lane id=":J2_3_1" index="1" speed="7.33" length="11.73" shape="210.40,1.60 206.55,1.95 203.80,3.00 202.15,4.75 201.60,7.20"/>
    </edge>
    <edge id=":J2_5" function="internal">
        <lane id=":J2_5_0" index="0" speed="13.89" length="20.80" shape="210.40,1.60 189.60,1.60"/>
    </edge>
    <edge id=":J2_6" function="internal">
        <lane id=":J2_6_0" index="0" speed="8.67" length="16.85" shape="210.40,1.60 205.15,1.05 201.40,-0.60 199.15,-3.35 198.40,-7.20"/>
    </edge>
    <edge id=":J2_7" function="internal">
        <lane id=":J2_7_0" index="0" speed="6.51" length="9.03" shape="204.80,-7.20 205.15,-4.75 206.20,-3.00 207.95,-1.95 210.40,-1.60"/>
    </edge>
    <edge id=":J2_8" function="internal">
        <lane id=":J2_8_0" index="0" speed="13.89" length="14.40" shape="204.80,-7.20 204.80,7.20"/>
        <lane id=":J2_8_1" index="1" speed="13.89" length="14.40" shape="201.60,-7.20 201.60,7.20"/>
    </edge>
    <edge id=":J2_10" function="internal">
        <lane id=":J2_10_0" index="0" speed="6.51" length="9.03" shape="189.60,-1.60 192.05,-1.95 193.80,-3.00 194.85,-4.75 195.20,-7.20"/>
        <lane id=":J2_10_1" index="1" speed="7.33" length="11.73" shape="189.60,-1.60 193.45,-1.95 196.20,-3.00 197.85,-4.75 198.40,-7.20"/>
    </edge>
    <edge id=":J2_12" function="internal">
        <lane id=":J2_12_0" index="0" speed="13.89" length="20.80" shape="189.60,-1.60 210.40,-1.60"/>
    </edge>
    <edge id=":J2_13" function="internal">
        <lane id=":J2_13_0" index="0" speed="8.67" length="16.85" shape="189.60,-1.60 194.85,-1.05 198.60,0.60 200.85,3.35 201.60,7.20"/>
    </edge>

    <edge id="-E0" from="J1" to="J0" priority="-1">
        <lane id="-E0_0" index="0" speed="13.89" length="92.80" shape="92.80,1.60 0.00,1.60"/>
    </edge>
    <edge id="-E1" from="J2" to="J1" priority="-1">
        <lane id="-E1_0" index="0" speed="13.89" length="82.40" shape="189.60,1.60 107.20,1.60"/>
    </edge>
    <edge id="-E2" from="J1" to="J3" priority="-1">
        <lane id="-E2_0" index="0" speed="13.89" length="92.80" shape="98.40,-7.20 98.40,-100.00"/>
    </edge>
    <edge id="-E3" from="J4" to="J1" priority="-1">
        <lane id="-E3_0" index="0" speed="13.89" length="92.80" shape="98.40,100.00 98.40,7.20"/>
    </edge>
    <edge id="-E4" from="J2" to="J5" priority="-1">
        <lane id="-E4_0" index="0" speed="13.89" length="92.80" shape="204.80,7.20 204.80,100.00"/>
        <lane id="-E4_1" index="1" speed="13.89" length="92.80" shape="201.60,7.20 201.60,100.00"/>
    </edge>
    <edge id="-E5" from="J6" to="J2" priority="-1">
        <lane id="-E5_0" index="0" speed="13.89" length="92.80" shape="204.80,-100.00 204.80,-7.20"/>
        <lane id="-E5_1" index="1" speed="13.89" length="92.80" shape="201.60,-100.00 201.60,-7.20"/>
    </edge>
    <edge id="-E6" from="J7" to="J2" priority="-1">
        <lane id="-E6_0" index="0" speed="13.89" length="89.60" shape="300.00,1.60 210.40,1.60"/>
    </edge>
    <edge id="E0" from="J0" to="J1" priority="-1">
        <lane id="E0_0" index="0" speed="13.89" length="92.80" shape="0.00,-1.60 92.80,-1.60"/>
    </edge>
    <edge id="E1" from="J1" to="J2" priority="-1">
        <lane id="E1_0" index="0" speed="13.89" length="82.40" shape="107.20,-1.60 189.60,-1.60"/>
    </edge>
    <edge id="E2" from="J3" to="J1" priority="-1">
        <lane id="E2_0" index="0" speed="13.89" length="92.80" shape="101.60,-100.00 101.60,-7.20"/>
    </edge>
    <edge id="E3" from="J1" to="J4" priority="-1">
        <lane id="E3_0" index="0" speed="13.89" length="92.80" shape="101.60,7.20 101.60,100.00"/>
    </edge>
    <edge id="E4" from="J5" to="J2" priority="-1">
        <lane id="E4_0" index="0" speed="13.89" length="92.80" shape="195.20,100.00 195.20,7.20"/>
        <lane id="E4_1" index="1" speed="13.89" length="92.80" shape="198.40,100.00 198.40,7.20"/>
    </edge>
    <edge id="E5" from="J2" to="J6" priority="-1">
        <lane id="E5_0" index="0" speed="13.89" length="92.80" shape="195.20,-7.20 195.20,-100.00"/>
        <lane id="E5_1" index="1" speed="13.89" length="92.80" shape="198.40,-7.20 198.40,-100.00"/>
    </edge>
    <edge id="E6" from="J2" to="J7" priority="-1">
        <lane id="E6_0" index="0" speed="13.89" length="89.60" shape="210.40,-1.60 300.00,-1.60"/>
    </edge>

    <tlLogic id="J1" type="static" programID="0" offset="0">
        <phase duration="45" state="GGGrrrrrrrrrr"/>
        <phase duration="5"  state="yyyrrrrrrrrrr"/>
        <phase duration="45" state="rrrrrrrGGGrrr"/>
        <phase duration="5"  state="rrrrrrryyyrrr"/>
        <phase duration="45" state="rrrGGGGrrrrrr"/>
        <phase duration="5"  state="rrryyyyrrrrrr"/>
        <phase duration="45" state="rrrrrrrGGGrrr"/>
        <phase duration="5"  state="rrrrrrryyyrrr"/>
        <phase duration="45" state="rrrrrrrrrrGGG"/>
        <phase duration="5"  state="rrrrrrrrrryyy"/>
        <phase duration="55" state="rrrrGrrrrrrGr"/>
        <phase duration="5"  state="rrrryrrrrrryr"/>
    </tlLogic>
    <tlLogic id="J2" type="static" programID="0" offset="0">
        <phase duration="109" state="GGGrrrrGGGrrrr"/>
        <phase duration="5"  state="yyyrrrryyyrrrr"/>
        <phase duration="120" state="rrrrrrrrrrGGGG"/>
        <phase duration="5"  state="rrrrrrrrrryyyy"/>
        <phase duration="115" state="rrrGGGGrrrrrrr"/>
        <phase duration="117" state="rrryyyyrrrrrrr"/>
    </tlLogic>

    <junction id="J0" type="dead_end" x="0.00" y="0.00" incLanes="-E0_0" intLanes="" shape="0.00,0.00 0.00,3.20 0.00,0.00"/>
    <junction id="J1" type="traffic_light" x="100.00" y="0.00" incLanes="-E3_0 -E1_0 E2_0 E0_0" intLanes=":J1_0_0 :J1_1_0 :J1_2_0 :J1_3_0 :J1_4_0 :J1_5_0 :J1_6_0 :J1_7_0 :J1_8_0 :J1_9_0 :J1_10_0 :J1_11_0 :J1_12_0" shape="96.80,7.20 103.20,7.20 103.64,4.98 104.20,4.20 104.98,3.64 105.98,3.31 107.20,3.20 107.20,-3.20 104.98,-3.64 104.20,-4.20 103.64,-4.98 103.31,-5.98 103.20,-7.20 96.80,-7.20 96.36,-4.98 95.80,-4.20 95.02,-3.64 94.02,-3.31 92.80,-3.20 92.80,3.20 95.02,3.64 95.80,4.20 96.36,4.98 96.69,5.98">
        <request index="0"  response="0000000000000" foes="0001000010000" cont="0"/>
        <request index="1"  response="0000000000000" foes="1111000110000" cont="0"/>
        <request index="2"  response="0001110000000" foes="1101111110000" cont="0"/>
        <request index="3"  response="0000100000000" foes="1000100000000" cont="0"/>
        <request index="4"  response="0001100000111" foes="1001100000111" cont="0"/>
        <request index="5"  response="1111100000110" foes="1111100000110" cont="0"/>
        <request index="6"  response="0100010000100" foes="0100010000100" cont="0"/>
        <request index="7"  response="0000000000000" foes="0100001000100" cont="0"/>
        <request index="8"  response="0000000000000" foes="1100000111100" cont="0"/>
        <request index="9"  response="0000000000011" foes="1100000110111" cont="0"/>
        <request index="10" response="0000000000010" foes="0000000100010" cont="0"/>
        <request index="11" response="0001110000110" foes="0001111100110" cont="0"/>
        <request index="12" response="0001100011110" foes="0001100111110" cont="0"/>
    </junction>
    <junction id="J2" type="traffic_light" x="200.00" y="0.00" incLanes="E4_0 E4_1 -E6_0 -E5_0 -E5_1 E1_0" intLanes=":J2_0_0 :J2_1_0 :J2_1_1 :J2_3_0 :J2_3_1 :J2_5_0 :J2_6_0 :J2_7_0 :J2_8_0 :J2_8_1 :J2_10_0 :J2_10_1 :J2_12_0 :J2_13_0" shape="193.60,7.20 206.40,7.20 206.84,4.98 207.40,4.20 208.18,3.64 209.18,3.31 210.40,3.20 210.40,-3.20 208.18,-3.64 207.40,-4.20 206.84,-4.98 206.51,-5.98 206.40,-7.20 193.60,-7.20 193.16,-4.98 192.60,-4.20 191.82,-3.64 190.82,-3.31 189.60,-3.20 189.60,3.20 191.82,3.64 192.60,4.20 193.16,4.98 193.49,5.98">
        <request index="0"  response="00000000000000" foes="00000000100000" cont="0"/>
        <request index="1"  response="00000000000000" foes="11110001100000" cont="0"/>
        <request index="2"  response="00000000000000" foes="11110001100000" cont="0"/>
        <request index="3"  response="00001100000000" foes="10001100000000" cont="0"/>
        <request index="4"  response="00001100000000" foes="10001100000000" cont="0"/>
        <request index="5"  response="00001100000111" foes="10001100000111" cont="0"/>
        <request index="6"  response="01111100000110" foes="01111100000110" cont="0"/>
        <request index="7"  response="00000000000000" foes="01000000000000" cont="0"/>
        <request index="8"  response="00000000000000" foes="11000001111000" cont="0"/>
        <request index="9"  response="00000000000000" foes="11000001111000" cont="0"/>
        <request index="10" response="00000000000110" foes="00000001000110" cont="0"/>
        <request index="11" response="00000000000110" foes="00000001000110" cont="0"/>
        <request index="12" response="00001110000110" foes="00001111000110" cont="0"/>
        <request index="13" response="00001100111110" foes="00001100111110" cont="0"/>
    </junction>
    <junction id="J3" type="dead_end" x="100.00" y="-100.00" incLanes="-E2_0" intLanes="" shape="100.00,-100.00 96.80,-100.00 100.00,-100.00"/>
    <junction id="J4" type="dead_end" x="100.00" y="100.00" incLanes="E3_0" intLanes="" shape="100.00,100.00 103.20,100.00 100.00,100.00"/>
    <junction id="J5" type="dead_end" x="200.00" y="100.00" incLanes="-E4_0 -E4_1" intLanes="" shape="200.00,100.00 206.40,100.00 200.00,100.00"/>
    <junction id="J6" type="dead_end" x="200.00" y="-100.00" incLanes="E5_0 E5_1" intLanes="" shape="200.00,-100.00 193.60,-100.00 200.00,-100.00"/>
    <junction id="J7" type="dead_end" x="300.00" y="0.00" incLanes="E6_0" intLanes="" shape="300.00,0.00 300.00,-3.20 300.00,0.00"/>

    <connection from="-E1" to="E3" fromLane="0" toLane="0" via=":J1_3_0" tl="J1" linkIndex="3" dir="r" state="o"/>
    <connection from="-E1" to="-E0" fromLane="0" toLane="0" via=":J1_4_0" tl="J1" linkIndex="4" dir="s" state="o"/>
    <connection from="-E1" to="-E2" fromLane="0" toLane="0" via=":J1_5_0" tl="J1" linkIndex="5" dir="l" state="o"/>
    <connection from="-E1" to="E1" fromLane="0" toLane="0" via=":J1_6_0" tl="J1" linkIndex="6" dir="t" state="o"/>
    <connection from="-E3" to="-E0" fromLane="0" toLane="0" via=":J1_0_0" tl="J1" linkIndex="0" dir="r" state="O"/>
    <connection from="-E3" to="-E2" fromLane="0" toLane="0" via=":J1_1_0" tl="J1" linkIndex="1" dir="s" state="O"/>
    <connection from="-E3" to="E1" fromLane="0" toLane="0" via=":J1_2_0" tl="J1" linkIndex="2" dir="l" state="o"/>
    <connection from="-E5" to="E6" fromLane="0" toLane="0" via=":J2_7_0" tl="J2" linkIndex="7" dir="r" state="O"/>
    <connection from="-E5" to="-E4" fromLane="0" toLane="0" via=":J2_8_0" tl="J2" linkIndex="8" dir="s" state="O"/>
    <connection from="-E5" to="-E4" fromLane="1" toLane="1" via=":J2_8_1" tl="J2" linkIndex="9" dir="s" state="O"/>
    <connection from="-E6" to="-E4" fromLane="0" toLane="0" via=":J2_3_0" tl="J2" linkIndex="3" dir="r" state="o"/>
    <connection from="-E6" to="-E4" fromLane="0" toLane="1" via=":J2_3_1" tl="J2" linkIndex="4" dir="r" state="o"/>
    <connection from="-E6" to="-E1" fromLane="0" toLane="0" via=":J2_5_0" tl="J2" linkIndex="5" dir="s" state="o"/>
    <connection from="-E6" to="E5" fromLane="0" toLane="1" via=":J2_6_0" tl="J2" linkIndex="6" dir="l" state="o"/>
    <connection from="E0" to="-E2" fromLane="0" toLane="0" via=":J1_10_0" tl="J1" linkIndex="10" dir="r" state="o"/>
    <connection from="E0" to="E1" fromLane="0" toLane="0" via=":J1_11_0" tl="J1" linkIndex="11" dir="s" state="o"/>
    <connection from="E0" to="E3" fromLane="0" toLane="0" via=":J1_12_0" tl="J1" linkIndex="12" dir="l" state="o"/>
    <connection from="E1" to="E5" fromLane="0" toLane="0" via=":J2_10_0" tl="J2" linkIndex="10" dir="r" state="o"/>
    <connection from="E1" to="E5" fromLane="0" toLane="1" via=":J2_10_1" tl="J2" linkIndex="11" dir="r" state="o"/>
    <connection from="E1" to="E6" fromLane="0" toLane="0" via=":J2_12_0" tl="J2" linkIndex="12" dir="s" state="o"/>
    <connection from="E1" to="-E4" fromLane="0" toLane="1" via=":J2_13_0" tl="J2" linkIndex="13" dir="l" state="o"/>
    <connection from="E2" to="E1" fromLane="0" toLane="0" via=":J1_7_0" tl="J1" linkIndex="7" dir="r" state="O"/>
    <connection from="E2" to="E3" fromLane="0" toLane="0" via=":J1_8_0" tl="J1" linkIndex="8" dir="s" state="O"/>
    <connection from="E2" to="-E0" fromLane="0" toLane="0" via=":J1_9_0" tl="J1" linkIndex="9" dir="l" state="o"/>
    <connection from="E4" to="-E1" fromLane="0" toLane="0" via=":J2_0_0" tl="J2" linkIndex="0" dir="r" state="O"/>
    <connection from="E4" to="E5" fromLane="0" toLane="0" via=":J2_1_0" tl="J2" linkIndex="1" dir="s" state="O"/>
    <connection from="E4" to="E5" fromLane="1" toLane="1" via=":J2_1_1" tl="J2" linkIndex="2" dir="s" state="O"/>

    <connection from=":J1_0" to="-E0" fromLane="0" toLane="0" dir="r" state="M"/>
    <connection from=":J1_1" to="-E2" fromLane="0" toLane="0" dir="s" state="M"/>
    <connection from=":J1_2" to="E1" fromLane="0" toLane="0" dir="l" state="M"/>
    <connection from=":J1_3" to="E3" fromLane="0" toLane="0" dir="r" state="M"/>
    <connection from=":J1_4" to="-E0" fromLane="0" toLane="0" dir="s" state="M"/>
    <connection from=":J1_5" to="-E2" fromLane="0" toLane="0" dir="l" state="M"/>
    <connection from=":J1_6" to="E1" fromLane="0" toLane="0" dir="t" state="M"/>
    <connection from=":J1_7" to="E1" fromLane="0" toLane="0" dir="r" state="M"/>
    <connection from=":J1_8" to="E3" fromLane="0" toLane="0" dir="s" state="M"/>
    <connection from=":J1_9" to="-E0" fromLane="0" toLane="0" dir="l" state="M"/>
    <connection from=":J1_10" to="-E2" fromLane="0" toLane="0" dir="r" state="M"/>
    <connection from=":J1_11" to="E1" fromLane="0" toLane="0" dir="s" state="M"/>
    <connection from=":J1_12" to="E3" fromLane="0" toLane="0" dir="l" state="M"/>
    <connection from=":J2_0" to="-E1" fromLane="0" toLane="0" dir="r" state="M"/>
    <connection from=":J2_1" to="E5" fromLane="0" toLane="0" dir="s" state="M"/>
    <connection from=":J2_1" to="E5" fromLane="1" toLane="1" dir="s" state="M"/>
    <connection from=":J2_3" to="-E4" fromLane="0" toLane="0" dir="r" state="M"/>
    <connection from=":J2_3" to="-E4" fromLane="1" toLane="1" dir="r" state="M"/>
    <connection from=":J2_5" to="-E1" fromLane="0" toLane="0" dir="s" state="M"/>
    <connection from=":J2_6" to="E5" fromLane="0" toLane="1" dir="l" state="M"/>
    <connection from=":J2_7" to="E6" fromLane="0" toLane="0" dir="r" state="M"/>
    <connection from=":J2_8" to="-E4" fromLane="0" toLane="0" dir="s" state="M"/>
    <connection from=":J2_8" to="-E4" fromLane="1" toLane="1" dir="s" state="M"/>
    <connection from=":J2_10" to="E5" fromLane="0" toLane="0" dir="r" state="M"/>
    <connection from=":J2_10" to="E5" fromLane="1" toLane="1" dir="r" state="M"/>
    <connection from=":J2_12" to="E6" fromLane="0" toLane="0" dir="s" state="M"/>
    <connection from=":J2_13" to="-E4" fromLane="0" toLane="1" dir="l" state="M"/>

</net>
