<?xml version="1.0" encoding="UTF-8"?>

<!-- generated on 2024-11-19 14:14:27 by Eclipse SUMO netedit Version 1.21.0
-->

<routes xmlns:xsi="http://www.w3.org/2001/XMLSchema-instance" xsi:noNamespaceSchemaLocation="http://sumo.dlr.de/xsd/routes_file.xsd">
    <!-- VTypes -->
    <vType id="bus_bus" vClass="bus"/>
    <vType id="motorcycle_motorcycle" vClass="motorcycle"/>
    <vType id="truck_truck" vClass="truck" latAlignment="nice" laneChangeModel="SL2015"/>
    <vType id="veh_passenger" vClass="passenger"/>
    <!-- Vehicles, persons and containers (sorted by depart) -->
    <trip id="bus0" type="bus_bus" depart="0.00" departLane="best" from="156275582#4" to="-152564756"/>
    <trip id="motorcycle0" type="motorcycle_motorcycle" depart="0.00" departLane="best" from="284766061#0" to="181557155#1"/>
    <trip id="truck0" type="truck_truck" depart="0.00" departLane="best" from="156275582#4" to="-152564756"/>
    <trip id="veh0" type="veh_passenger" depart="0.00" departLane="best" from="284365498#5" to="152752292#1"/>
    <trip id="veh1" type="veh_passenger" depart="2.91" departLane="best" departSpeed="max" from="-467061053" to="-284766117#6"/>
    <trip id="truck1" type="truck_truck" depart="4.36" departLane="best" from="296391598#4" to="-284274024#2"/>
    <trip id="bus1" type="bus_bus" depart="8.73" departLane="best" from="296391598#4" to="-284274024#2"/>
    <trip id="motorcycle1" type="motorcycle_motorcycle" depart="8.73" departLane="best" from="700383611#0" to="-153090294#1"/>
    <trip id="veh3" type="veh_passenger" depart="8.73" departLane="best" from="829460024#1" to="-153090302#5"/>
    <trip id="veh4" type="veh_passenger" depart="11.64" departLane="best" from="151967274#1" to="-153027614#1"/>
    <trip id="truck3" type="truck_truck" depart="13.09" departLane="best" departSpeed="max" from="-946207933#3" to="152752292#1"/>
    <trip id="veh5" type="veh_passenger" depart="14.55" departLane="best" from="-284766090#0" to="153097426"/>
    <trip id="truck4" type="truck_truck" depart="17.45" departLane="best" from="-284274024#10" to="153090253"/>
    <trip id="veh6" type="veh_passenger" depart="17.45" departLane="best" departSpeed="max" from="-153027614#5" to="284274024#7"/>
    <trip id="veh7" type="veh_passenger" depart="20.36" departLane="best" from="-284766090#4" to="-156356436#16"/>
    <trip id="bus3" type="bus_bus" depart="26.18" departLane="best" departSpeed="max" from="-946207933#3" to="152752292#1"/>
    <trip id="motorcycle3" type="motorcycle_motorcycle" depart="26.18" departLane="best" from="-152752292#1" to="-156357718#3"/>
    <trip id="truck6" type="truck_truck" depart="26.18" departLane="best" from="466818184#2" to="284274024#18"/>
    <trip id="veh9" type="veh_passenger" depart="26.18" departLane="best" from="700328604#2" to="284766117#10"/>
    <trip id="veh10" type="veh_passenger" depart="29.09" departLane="best" departSpeed="max" from="-700399867" to="-156356436#11"/>
    <trip id="truck7" type="truck_truck" depart="30.55" departLane="best" from="-687849225#6" to="-156268043#4"/>
    <trip id="veh11" type="veh_passenger" depart="32.00" departLane="best" from="924948800#3" to="-815481759"/>
    <trip id="bus4" type="bus_bus" depart="34.91" departLane="best" from="-284274024#10" to="153090253"/>
    <trip id="motorcycle4" type="motorcycle_motorcycle" depart="34.91" departLane="best" from="156356132" to="153090296#0"/>
    <trip id="truck8" type="truck_truck" depart="34.91" departLane="best" from="90231646#9" to="-477694280#1"/>
    <trip id="veh12" type="veh_passenger" depart="34.91" departLane="best" departSpeed="max" from="-153097426" to="-153090307#0"/>
    <trip id="veh13" type="veh_passenger" depart="37.82" departLane="best" from="707823134#8-AddedOnRampEdge" to="168380363#1"/>
    <trip id="truck9" type="truck_truck" depart="39.27" departLane="best" from="466818186" to="284766066#0"/>
    <trip id="veh14" type="veh_passenger" depart="40.73" departLane="best" from="700328604#2" to="296391645#0"/>
    <trip id="truck10" type="truck_truck" depart="43.64" departLane="best" from="153090291#4" to="924948801#6"/>
    <trip id="veh15" type="veh_passenger" depart="43.64" departLane="best" from="155207033#0" to="924948801#5"/>
    <trip id="veh16" type="veh_passenger" depart="46.55" departLane="best" from="1083870239" to="156268175#5"/>
    <trip id="truck11" type="truck_truck" depart="48.00" departLane="best" departSpeed="max" from="-700395777" to="-153090302#3"/>
    <trip id="veh17" type="veh_passenger" depart="49.45" departLane="best" departSpeed="max" from="700395779" to="181557166"/>
    <trip id="bus6" type="bus_bus" depart="52.36" departLane="best" from="466818184#2" to="284274024#18"/>
    <trip id="motorcycle6" type="motorcycle_motorcycle" depart="52.36" departLane="best" from="153090296#3" to="-153090301#1"/>
    <trip id="veh18" type="veh_passenger" depart="52.36" departLane="best" departSpeed="max" from="826565806" to="156268179#4"/>
    <trip id="veh19" type="veh_passenger" depart="55.27" departLane="best" from="-296391648#0" to="-153090266#0"/>
    <trip id="veh20" type="veh_passenger" depart="58.18" departLane="best" from="-284766121#1" to="467061055#3"/>
    <trip id="bus7" type="bus_bus" depart="61.09" departLane="best" from="-687849225#6" to="-156268043#4"/>
    <trip id="truck14" type="truck_truck" depart="61.09" departLane="best" from="284365498#6" to="-153088555#4"/>
    <trip id="veh21" type="veh_passenger" depart="61.09" departLane="best" from="-153090302#0" to="-284766129"/>
    <trip id="veh22" type="veh_passenger" depart="64.00" departLane="best" from="-153617510#1" to="-466818186"/>
    <trip id="truck15" type="truck_truck" depart="65.45" departLane="best" from="-284274045#3" to="296391615#0"/>
    <trip id="veh23" type="veh_passenger" depart="66.91" departLane="best" from="284274024#8" to="-949336811"/>
    <trip id="bus8" type="bus_bus" depart="69.82" departLane="best" from="90231646#9" to="-477694280#1"/>
    <trip id="motorcycle8" type="motorcycle_motorcycle" depart="69.82" departLane="best" departSpeed="max" from="153090292#0" to="924948801#4"/>
    <trip id="truck16" type="truck_truck" depart="69.82" departLane="best" from="-153090292#2" to="-284766047#3"/>
    <trip id="veh24" type="veh_passenger" depart="69.82" departLane="best" from="-946429342#0" to="-284766061#2"/>
    <trip id="truck17" type="truck_truck" depart="74.18" departLane="best" departSpeed="max" from="156275582#0" to="-700337256#0"/>
    <trip id="veh26" type="veh_passenger" depart="75.64" departLane="best" from="284766054#2" to="168380422#1"/>
    <trip id="bus9" type="bus_bus" depart="78.54" departLane="best" from="466818186" to="284766066#0"/>
    <trip id="truck18" type="truck_truck" depart="78.54" departLane="best" from="-284766163" to="829460017"/>
    <trip id="veh27" type="veh_passenger" depart="78.54" departLane="best" from="-181557158#0" to="296391643#1"/>
    <trip id="veh28" type="veh_passenger" depart="81.45" departLane="best" from="-168380363#2" to="123131426"/>
    <trip id="truck19" type="truck_truck" depart="82.91" departLane="best" from="156356436#8" to="284766061#2"/>
    <trip id="veh29" type="veh_passenger" depart="84.36" departLane="best" from="946429344#0" to="25098040#1"/>
    <trip id="bus10" type="bus_bus" depart="87.27" departLane="best" from="153090291#4" to="924948801#6"/>
    <trip id="motorcycle10" type="motorcycle_motorcycle" depart="87.27" departLane="best" from="466818186" to="156268175#1"/>
    <trip id="truck20" type="truck_truck" depart="87.27" departLane="best" from="156356436#13" to="-700397730#1"/>
    <trip id="veh30" type="veh_passenger" depart="87.27" departLane="best" from="707823134#4-AddedOffRampEdge" to="507132798#3"/>
    <trip id="veh31" type="veh_passenger" depart="90.18" departLane="best" from="-284766124#0" to="-153027638"/>
    <trip id="truck21" type="truck_truck" depart="91.64" departLane="best" from="153090301#2" to="181557190#4"/>
    <trip id="veh32" type="veh_passenger" depart="93.09" departLane="best" from="-700383601#2" to="-404807404#0"/>
    <trip id="bus11" type="bus_bus" depart="96.00" departLane="best" departSpeed="max" from="-700395777" to="-153090302#3"/>
    <trip id="motorcycle11" type="motorcycle_motorcycle" depart="96.00" departLane="best" from="-284274024#11" to="-153088555#4"/>
    <trip id="truck22" type="truck_truck" depart="96.00" departLane="best" departSpeed="max" from="617102488#0" to="296391636#0"/>
    <trip id="veh33" type="veh_passenger" depart="96.00" departLane="best" from="-284766055" to="90231649#10-AddedOnRampEdge"/>
    <trip id="veh34" type="veh_passenger" depart="98.91" departLane="best" departSpeed="max" from="826585930" to="-700337256#0"/>
    <trip id="truck23" type="truck_truck" depart="100.36" departLane="best" from="-284667666#3" to="-153027614#0"/>
    <trip id="veh35" type="veh_passenger" depart="101.82" departLane="best" from="284766068#2" to="148258858#0"/>
    <trip id="motorcycle12" type="motorcycle_motorcycle" depart="104.73" departLane="best" from="-153090292#1" to="-284274024#14"/>
    <trip id="truck24" type="truck_truck" depart="104.73" departLane="best" departSpeed="max" from="-467061052#1" to="-284766132"/>
    <trip id="veh36" type="veh_passenger" depart="104.73" departLane="best" departSpeed="max" from="831988117#0" to="153090276#0"/>
    <trip id="veh37" type="veh_passenger" depart="107.64" departLane="best" from="-466818184#0" to="-296391599#0"/>
    <trip id="truck25" type="truck_truck" depart="109.09" departLane="best" departSpeed="max" from="-181557188#1" to="829460024#2"/>
    <trip id="motorcycle13" type="motorcycle_motorcycle" depart="113.45" departLane="best" from="156268179#15" to="-700328594#0"/>
    <trip id="truck26" type="truck_truck" depart="113.45" departLane="best" departSpeed="max" from="700337256#0" to="-466818182#0"/>
    <trip id="veh39" type="veh_passenger" depart="113.45" departLane="best" from="-156275585#0" to="829460017"/>
    <trip id="veh40" type="veh_passenger" depart="116.36" departLane="best" from="-1305150801#1" to="-284766117#1"/>
    <trip id="truck27" type="truck_truck" depart="117.82" departLane="best" from="156357718#1" to="-826202608#0"/>
    <trip id="veh41" type="veh_passenger" depart="119.27" departLane="best" departSpeed="max" from="949336812" to="153207638#2"/>
    <trip id="bus14" type="bus_bus" depart="122.18" departLane="best" from="284365498#6" to="-153088555#4"/>
    <trip id="motorcycle14" type="motorcycle_motorcycle" depart="122.18" departLane="best" from="156275585#0" to="155207363#1"/>
    <trip id="truck28" type="truck_truck" depart="122.18" departLane="best" from="-284766136" to="-284766090#2"/>
    <trip id="veh42" type="veh_passenger" depart="122.18" departLane="best" departSpeed="max" from="-153097426" to="-153090266#0"/>
    <trip id="veh43" type="veh_passenger" depart="125.09" departLane="best" from="-153617524#8" to="181557188#0"/>
    <trip id="truck29" type="truck_truck" depart="126.54" departLane="best" from="153090302#1" to="-284766124#2"/>
    <trip id="bus15" type="bus_bus" depart="130.91" departLane="best" from="-284274045#3" to="296391615#0"/>
    <trip id="motorcycle15" type="motorcycle_motorcycle" depart="130.91" departLane="best" from="156275582#4" to="284766046"/>
    <trip id="truck30" type="truck_truck" depart="130.91" departLane="best" departSpeed="max" from="153097479#0" to="700399866"/>
    <trip id="veh45" type="veh_passenger" depart="130.91" departLane="best" from="-153090291#2" to="123131426-AddedOnRampEdge"/>
    <trip id="veh46" type="veh_passenger" depart="133.82" departLane="best" departSpeed="max" from="949336811" to="155207033#3"/>
    <trip id="truck31" type="truck_truck" depart="135.27" departLane="best" departSpeed="max" from="-700406947#1" to="-284274024#11"/>
    <trip id="bus16" type="bus_bus" depart="139.64" departLane="best" from="-153090292#2" to="-284766047#3"/>
    <trip id="truck32" type="truck_truck" depart="139.64" departLane="best" departSpeed="max" from="949336812" to="153090274#1"/>
    <trip id="veh48" type="veh_passenger" depart="139.64" departLane="best" departSpeed="max" from="-151967264#3" to="296391602#1"/>
    <trip id="veh49" type="veh_passenger" depart="142.54" departLane="best" from="284766140#0" to="156268173#1"/>
    <trip id="truck33" type="truck_truck" depart="144.00" departLane="best" departSpeed="max" from="-153097426" to="156275585#0"/>
    <trip id="bus17" type="bus_bus" depart="148.36" departLane="best" departSpeed="max" from="156275582#0" to="-700337256#0"/>
    <trip id="motorcycle17" type="motorcycle_motorcycle" depart="148.36" departLane="best" from="946429344#0" to="-156275582#3"/>
    <trip id="truck34" type="truck_truck" depart="148.36" departLane="best" departSpeed="max" from="-153090281#1" to="-700406950#1"/>
    <trip id="veh51" type="veh_passenger" depart="148.36" departLane="best" from="155206838#0" to="153027614#5"/>
    <trip id="veh52" type="veh_passenger" depart="151.27" departLane="best" departSpeed="max" from="153090241" to="924948800#1"/>
    <trip id="truck35" type="truck_truck" depart="152.73" departLane="best" departSpeed="max" from="949336811" to="153090288"/>
    <trip id="veh53" type="veh_passenger" depart="154.18" departLane="best" departSpeed="max" from="826585930" to="-296391653#0"/>
    <trip id="bus18" type="bus_bus" depart="157.09" departLane="best" from="-284766163" to="829460017"/>
    <trip id="motorcycle18" type="motorcycle_motorcycle" depart="157.09" departLane="best" from="153090301#4" to="181557166"/>
    <trip id="truck36" type="truck_truck" depart="157.09" departLane="best" from="924948801#2" to="700335842#0"/>
    <trip id="veh54" type="veh_passenger" depart="157.09" departLane="best" departSpeed="max" from="153090303#0" to="181557177#1"/>
    <trip id="veh55" type="veh_passenger" depart="160.00" departLane="best" departSpeed="max" from="831988117#0" to="826585153#1"/>
    <trip id="truck37" type="truck_truck" depart="161.45" departLane="best" from="-151967264#2" to="284766047#5"/>
    <trip id="bus19" type="bus_bus" depart="165.82" departLane="best" from="156356436#8" to="284766061#2"/>
    <trip id="truck38" type="truck_truck" depart="165.82" departLane="best" from="-284766163" to="-156356436#8"/>
    <trip id="veh59" type="veh_passenger" depart="171.64" departLane="best" from="687849225#1" to="155207033#3"/>
    <trip id="bus20" type="bus_bus" depart="174.54" departLane="best" from="156356436#13" to="-700397730#1"/>
    <trip id="motorcycle20" type="motorcycle_motorcycle" depart="174.54" departLane="best" from="-296391656#2" to="-284766117#10"/>
    <trip id="truck40" type="truck_truck" depart="174.54" departLane="best" from="296391645#0" to="153090291#0"/>
    <trip id="veh60" type="veh_passenger" depart="174.54" departLane="best" from="-1014442467" to="-700395779"/>
    <trip id="veh61" type="veh_passenger" depart="177.45" departLane="best" from="-152752290#2" to="898343283"/>
    <trip id="truck41" type="truck_truck" depart="178.91" departLane="best" departSpeed="max" from="-152752265#1" to="829457129#0"/>
    <trip id="veh62" type="veh_passenger" depart="180.36" departLane="best" departSpeed="max" from="826585930" to="700383611#2"/>
    <trip id="bus21" type="bus_bus" depart="183.27" departLane="best" from="153090301#2" to="181557190#4"/>
    <trip id="motorcycle21" type="motorcycle_motorcycle" depart="183.27" departLane="best" departSpeed="max" from="-181557166" to="834766781#0"/>
    <trip id="truck42" type="truck_truck" depart="183.27" departLane="best" from="700383601#1" to="507132798#8"/>
    <trip id="veh63" type="veh_passenger" depart="183.27" departLane="best" from="-700337256#2" to="-153090284#0"/>
    <trip id="veh64" type="veh_passenger" depart="186.18" departLane="best" departSpeed="max" from="826585930" to="90231649#3-AddedOffRampEdge"/>
    <trip id="veh65" type="veh_passenger" depart="189.09" departLane="best" from="-153090294#0" to="467061054"/>
    <trip id="bus22" type="bus_bus" depart="192.00" departLane="best" departSpeed="max" from="617102488#0" to="296391636#0"/>
    <trip id="truck44" type="truck_truck" depart="192.00" departLane="best" from="-153090294#3" to="153027614#5"/>
    <trip id="veh67" type="veh_passenger" depart="194.91" departLane="best" from="153090291#2" to="156268175#4"/>
    <trip id="truck45" type="truck_truck" depart="196.36" departLane="best" from="-296391602#3" to="-153207638#2"/>
    <trip id="veh68" type="veh_passenger" depart="197.82" departLane="best" from="-466818184#0" to="826580787#1"/>
    <trip id="bus23" type="bus_bus" depart="200.73" departLane="best" from="-284667666#3" to="-153027614#0"/>
    <trip id="motorcycle23" type="motorcycle_motorcycle" depart="200.73" departLane="best" from="-284766090#3" to="-284766047#2"/>
    <trip id="truck46" type="truck_truck" depart="200.73" departLane="best" departSpeed="max" from="151967274#0" to="153090301#6"/>
    <trip id="veh69" type="veh_passenger" depart="200.73" departLane="best" from="151967274#3" to="-284766085"/>
    <trip id="veh70" type="veh_passenger" depart="203.63" departLane="best" from="155207363#1" to="296391648#0"/>
    <trip id="truck47" type="truck_truck" depart="205.09" departLane="best" from="-284766136" to="700383610"/>
    <trip id="veh71" type="veh_passenger" depart="206.54" departLane="best" from="-284667666#3" to="-700328594#6"/>
    <trip id="bus24" type="bus_bus" depart="209.45" departLane="best" departSpeed="max" from="-467061052#1" to="-284766132"/>
    <trip id="motorcycle24" type="motorcycle_motorcycle" depart="209.45" departLane="best" from="153090302#3" to="-284766090#2"/>
    <trip id="truck48" type="truck_truck" depart="209.45" departLane="best" departSpeed="max" from="-946207933#3" to="-181557190#0"/>
    <trip id="veh72" type="veh_passenger" depart="209.45" departLane="best" departSpeed="max" from="949336811" to="25098040#1"/>
    <trip id="veh73" type="veh_passenger" depart="212.36" departLane="best" from="-152752298" to="153617511#2"/>
    <trip id="truck49" type="truck_truck" depart="213.82" departLane="best" departSpeed="max" from="153090292#0" to="284766066#0"/>
    <trip id="veh74" type="veh_passenger" depart="215.27" departLane="best" from="-156268179#12" to="-284766121#0"/>
    <trip id="bus25" type="bus_bus" depart="218.18" departLane="best" departSpeed="max" from="-181557188#1" to="829460024#2"/>
    <trip id="motorcycle25" type="motorcycle_motorcycle" depart="218.18" departLane="best" from="153207638#1" to="700395778"/>
    <trip id="truck50" type="truck_truck" depart="218.18" departLane="best" from="181557182#1" to="-466732921#0"/>
    <trip id="veh75" type="veh_passenger" depart="218.18" departLane="best" departSpeed="max" from="-700399866" to="-156356436#15"/>
    <trip id="veh76" type="veh_passenger" depart="221.09" departLane="best" from="-153090294#2" to="181557190#4"/>
    <trip id="truck51" type="truck_truck" depart="222.54" departLane="best" departSpeed="max" from="949336811" to="167557958"/>
    <trip id="veh77" type="veh_passenger" depart="224.00" departLane="best" from="-284766124#0" to="829460024#2"/>
    <trip id="bus26" type="bus_bus" depart="226.91" departLane="best" departSpeed="max" from="700337256#0" to="-466818182#0"/>
    <trip id="motorcycle26" type="motorcycle_motorcycle" depart="226.91" departLane="best" from="-153090296#1" to="-153088555#5"/>
    <trip id="truck52" type="truck_truck" depart="226.91" departLane="best" from="-946429346#2" to="153090281#1"/>
    <trip id="veh78" type="veh_passenger" depart="226.91" departLane="best" departSpeed="max" from="826565806" to="-153090292#7"/>
    <trip id="veh79" type="veh_passenger" depart="229.82" departLane="best" from="-296391598#11" to="284667666#4"/>
    <trip id="truck53" type="truck_truck" depart="231.27" departLane="best" from="-687849225#2" to="155206832"/>
    <trip id="veh80" type="veh_passenger" depart="232.73" departLane="best" from="-284766068#2" to="156268179#8"/>
    <trip id="bus27" type="bus_bus" depart="235.63" departLane="best" from="156357718#1" to="-826202608#0"/>
    <trip id="motorcycle27" type="motorcycle_motorcycle" depart="235.63" departLane="best" from="153090305#1" to="156268179#13"/>
    <trip id="truck54" type="truck_truck" depart="235.63" departLane="best" departSpeed="max" from="-284667666#4" to="-284274024#14"/>
    <trip id="veh81" type="veh_passenger" depart="235.63" departLane="best" from="90231646#7" to="156268179#20"/>
    <trip id="veh82" type="veh_passenger" depart="238.54" departLane="best" from="153090287#1" to="507132798#9"/>
    <trip id="truck55" type="truck_truck" depart="240.00" departLane="best" from="-284667666#3" to="700406947#0"/>
    <trip id="bus28" type="bus_bus" depart="244.36" departLane="best" from="-284766136" to="-284766090#2"/>
    <trip id="motorcycle28" type="motorcycle_motorcycle" depart="244.36" departLane="best" departSpeed="max" from="-153090281#1" to="-700395779"/>
    <trip id="veh84" type="veh_passenger" depart="244.36" departLane="best" from="-153207638#3" to="152752292#1"/>
    <trip id="veh85" type="veh_passenger" depart="247.27" departLane="best" from="151967274#3" to="-153090282#2"/>
    <trip id="truck57" type="truck_truck" depart="248.73" departLane="best" from="-284766047#7" to="181557166"/>
    <trip id="veh86" type="veh_passenger" depart="250.18" departLane="best" from="466732921#1" to="284766035#0"/>
    <trip id="bus29" type="bus_bus" depart="253.09" departLane="best" from="153090302#1" to="-284766124#2"/>
    <trip id="motorcycle29" type="motorcycle_motorcycle" depart="253.09" departLane="best" from="946429346#3" to="153090291#0"/>
    <trip id="truck58" type="truck_truck" depart="253.09" departLane="best" departSpeed="max" from="-181557190#4" to="-153617507#4"/>
    <trip id="veh87" type="veh_passenger" depart="253.09" departLane="best" departSpeed="max" from="946207933#0" to="-153090307#3"/>
    <trip id="truck59" type="truck_truck" depart="257.45" departLane="best" from="90231649#10-AddedOffRampEdge" to="153207638#2"/>
    <trip id="veh89" type="veh_passenger" depart="258.91" departLane="best" departSpeed="max" from="826565806" to="296391602#2"/>
    <trip id="bus30" type="bus_bus" depart="261.82" departLane="best" departSpeed="max" from="153097479#0" to="700399866"/>
    <trip id="motorcycle30" type="motorcycle_motorcycle" depart="261.82" departLane="best" from="924948801#0" to="687849225#3"/>
    <trip id="truck60" type="truck_truck" depart="261.82" departLane="best" from="153090302#3" to="1213517249"/>
    <trip id="veh90" type="veh_passenger" depart="261.82" departLane="best" departSpeed="max" from="-181557190#4" to="153088555#5"/>
    <trip id="veh91" type="veh_passenger" depart="264.73" departLane="best" from="151967274#1" to="-466818187"/>
    <trip id="truck61" type="truck_truck" depart="266.18" departLane="best" departSpeed="max" from="-946207933#3" to="284365498#1"/>
    <trip id="veh92" type="veh_passenger" depart="267.63" departLane="best" from="-296391636#1" to="834766781#0"/>
    <trip id="bus31" type="bus_bus" depart="270.54" departLane="best" departSpeed="max" from="-700406947#1" to="-284274024#11"/>
    <trip id="motorcycle31" type="motorcycle_motorcycle" depart="270.54" departLane="best" from="148530110#2" to="284365498#4"/>
    <trip id="veh93" type="veh_passenger" depart="270.54" departLane="best" from="153027614#2" to="707823134#4"/>
    <trip id="veh95" type="veh_passenger" depart="276.36" departLane="best" departSpeed="max" from="949336812" to="700395764"/>
    <trip id="bus32" type="bus_bus" depart="279.27" departLane="best" departSpeed="max" from="949336812" to="153090274#1"/>
    <trip id="motorcycle32" type="motorcycle_motorcycle" depart="279.27" departLane="best" from="700397728#1" to="153090292#4"/>
    <trip id="veh96" type="veh_passenger" depart="279.27" departLane="best" from="924948801#2" to="893194275"/>
    <trip id="veh97" type="veh_passenger" depart="282.18" departLane="best" departSpeed="max" from="815481759" to="-167557948"/>
    <trip id="truck65" type="truck_truck" depart="283.63" departLane="best" departSpeed="max" from="123131429" to="700335842#0"/>
    <trip id="veh98" type="veh_passenger" depart="285.09" departLane="best" from="153090294#3" to="-284766085"/>
    <trip id="bus33" type="bus_bus" depart="288.00" departLane="best" departSpeed="max" from="-153097426" to="156275585#0"/>
    <trip id="motorcycle33" type="motorcycle_motorcycle" depart="288.00" departLane="best" from="-284766090#5" to="-156275582#4"/>
    <trip id="truck66" type="truck_truck" depart="288.00" departLane="best" from="924948800#7" to="827127374#0"/>
    <trip id="veh99" type="veh_passenger" depart="288.00" departLane="best" from="148258859#0" to="-153090284#1"/>
    <trip id="veh100" type="veh_passenger" depart="290.91" departLane="best" from="1083870239" to="946207933#3"/>
    <trip id="truck67" type="truck_truck" depart="292.36" departLane="best" from="-687849225#6" to="-156275582#1"/>
    <trip id="veh101" type="veh_passenger" depart="293.82" departLane="best" from="-466818184#0" to="507132798#8"/>
    <trip id="bus34" type="bus_bus" depart="296.73" departLane="best" departSpeed="max" from="-153090281#1" to="-700406950#1"/>
    <trip id="truck68" type="truck_truck" depart="296.73" departLane="best" departSpeed="max" from="152564756" to="-181557190#0"/>
    <trip id="veh102" type="veh_passenger" depart="296.73" departLane="best" from="-153090248" to="151967601#3"/>
    <trip id="veh103" type="veh_passenger" depart="299.63" departLane="best" from="284766066#0" to="946429344#0"/>
    <trip id="bus35" type="bus_bus" depart="305.45" departLane="best" departSpeed="max" from="949336811" to="153090288"/>
    <trip id="motorcycle35" type="motorcycle_motorcycle" depart="305.45" departLane="best" from="700328594#3" to="284766090#3"/>
    <trip id="truck70" type="truck_truck" depart="305.45" departLane="best" departSpeed="max" from="-700395777" to="946207933#3"/>
    <trip id="veh105" type="veh_passenger" depart="305.45" departLane="best" from="156357718#1" to="-655760581"/>
    <trip id="veh106" type="veh_passenger" depart="308.36" departLane="best" from="924948801#2" to="156268179#8"/>
    <trip id="truck71" type="truck_truck" depart="309.82" departLane="best" from="-284766136" to="296391656#1"/>
    <trip id="bus36" type="bus_bus" depart="314.18" departLane="best" from="924948801#2" to="700335842#0"/>
    <trip id="motorcycle36" type="motorcycle_motorcycle" depart="314.18" departLane="best" from="153088555#3" to="156275585#0"/>
    <trip id="truck72" type="truck_truck" depart="314.18" departLane="best" from="90231646#9" to="946429344#1"/>
    <trip id="veh108" type="veh_passenger" depart="314.18" departLane="best" from="153090303#1" to="700399867"/>
    <trip id="truck73" type="truck_truck" depart="318.54" departLane="best" departSpeed="max" from="153090301#0" to="284766047#5"/>
    <trip id="veh110" type="veh_passenger" depart="320.00" departLane="best" from="-153090302#1" to="181557188#0"/>
    <trip id="bus37" type="bus_bus" depart="322.91" departLane="best" from="-151967264#2" to="284766047#5"/>
    <trip id="motorcycle37" type="motorcycle_motorcycle" depart="322.91" departLane="best" from="-296391602#0" to="-156275582#2"/>
    <trip id="truck74" type="truck_truck" depart="322.91" departLane="best" from="-156268179#7" to="-296391643#1"/>
    <trip id="veh111" type="veh_passenger" depart="322.91" departLane="best" from="156356436#6" to="284766047#3"/>
    <trip id="truck75" type="truck_truck" depart="327.27" departLane="best" from="924948800#7" to="153617511#0"/>
    <trip id="veh113" type="veh_passenger" depart="328.72" departLane="best" from="829460024#1" to="-296391599#0"/>
    <trip id="bus38" type="bus_bus" depart="331.63" departLane="best" from="-284766163" to="-156356436#8"/>
    <trip id="motorcycle38" type="motorcycle_motorcycle" depart="331.63" departLane="best" from="155206838#2" to="-155206838#2"/>
    <trip id="truck76" type="truck_truck" depart="331.63" departLane="best" from="153090292#3" to="284766121#2"/>
    <trip id="veh114" type="veh_passenger" depart="331.63" departLane="best" from="156356436#6" to="181557166"/>
    <trip id="truck77" type="truck_truck" depart="336.00" departLane="best" from="153088555#0" to="700328594#5"/>
    <trip id="veh116" type="veh_passenger" depart="337.45" departLane="best" from="153617507#4" to="90231646#7-AddedOnRampEdge"/>
    <trip id="motorcycle39" type="motorcycle_motorcycle" depart="340.36" departLane="best" from="296391598#7" to="-153090291#1"/>
    <trip id="truck78" type="truck_truck" depart="340.36" departLane="best" from="-156275585#0" to="90231649#3"/>
    <trip id="veh117" type="veh_passenger" depart="340.36" departLane="best" departSpeed="max" from="-284667666#4" to="296391598#6"/>
    <trip id="veh118" type="veh_passenger" depart="343.27" departLane="best" from="-296391598#13" to="148258858#0"/>
    <trip id="truck79" type="truck_truck" depart="344.72" departLane="best" from="-284766046" to="-153090307#8"/>
    <trip id="veh119" type="veh_passenger" depart="346.18" departLane="best" from="-284766121#1" to="-700139910"/>
    <trip id="bus40" type="bus_bus" depart="349.09" departLane="best" from="296391645#0" to="153090291#0"/>
    <trip id="motorcycle40" type="motorcycle_motorcycle" depart="349.09" departLane="best" from="-296391636#1" to="-153090274#2"/>
    <trip id="truck80" type="truck_truck" depart="349.09" departLane="best" departSpeed="max" from="700395779" to="-284766090#0"/>
    <trip id="veh120" type="veh_passenger" depart="349.09" departLane="best" from="-700383602" to="466818188"/>
    <trip id="veh121" type="veh_passenger" depart="352.00" departLane="best" from="-153090295#1" to="153090276#0"/>
    <trip id="truck81" type="truck_truck" depart="353.45" departLane="best" from="-945340954" to="153617524#3"/>
    <trip id="veh122" type="veh_passenger" depart="354.91" departLane="best" departSpeed="max" from="949336812" to="946429344#1"/>